<?xml version="1.0"?>
<routes>
    <trips>
        <trip id="0" depart="0.00" from="1/2to1/1" to="1/1to1/0" />
    </trips>
</routes>
