<?xml version="1.0"?>
<routes>
    <trips>
        <trip id="0" depart="0.00" from="36917807#1" to="-1090772073" />
    </trips>
</routes>
