<?xml version="1.0" encoding="UTF-8"?>

<!-- generated on 2023-10-02 09:30:26 by Eclipse SUMO duarouter Version 1.12.0
<configuration xmlns:xsi="http://www.w3.org/2001/XMLSchema-instance" xsi:noNamespaceSchemaLocation="http://sumo.dlr.de/xsd/duarouterConfiguration.xsd">

    <input>
        <net-file value="turin.net.xml"/>
        <route-files value="turin.trips.xml"/>
    </input>

    <output>
        <output-file value="turin.trips.xml.tmp"/>
        <write-trips value="true"/>
    </output>

    <time>
        <begin value="0"/>
        <end value="600"/>
    </time>

    <report>
        <no-warnings value="true"/>
        <ignore-errors value="true"/>
        <no-step-log value="true"/>
    </report>

</configuration>
-->

<routes xmlns:xsi="http://www.w3.org/2001/XMLSchema-instance" xsi:noNamespaceSchemaLocation="http://sumo.dlr.de/xsd/routes_file.xsd">
    <trip id="0" depart="0.00" from="346319159" to="-1102649877#3"/>
    <trip id="1" depart="0.50" from="105600448#0" to="-8272429#0"/>
    <trip id="2" depart="1.00" from="397537027#4" to="37730532#9"/>
    <trip id="3" depart="1.50" from="714022408#0" to="-160667646#1"/>
    <trip id="4" depart="2.00" from="133855825#2" to="-1117205703#10"/>
    <trip id="5" depart="2.50" from="-727582095" to="191142224"/>
    <trip id="6" depart="3.00" from="-1123085977#1" to="-59712738#0"/>
    <trip id="7" depart="3.50" from="36843404#1" to="23182379#4"/>
    <trip id="8" depart="4.00" from="-756859271#0" to="28107362#14"/>
    <trip id="9" depart="4.50" from="502438902#2" to="-104675798#1"/>
    <trip id="10" depart="5.00" from="49304544" to="38027665#1"/>
    <trip id="11" depart="5.50" from="111995476#1" to="-38027983#11"/>
    <trip id="12" depart="6.00" from="862454065#1" to="1148433532"/>
    <trip id="13" depart="6.50" from="-190985111#2" to="-191108737#0"/>
    <trip id="14" depart="7.00" from="584766945#0" to="302520057#4"/>
    <trip id="15" depart="7.50" from="49723042#4" to="405055927#2"/>
    <trip id="16" depart="8.00" from="220847826#4" to="881245057#0"/>
    <trip id="17" depart="8.50" from="121952553#6" to="23575327#1"/>
    <trip id="18" depart="9.00" from="572328742#2" to="328929617#2"/>
    <trip id="19" depart="9.50" from="607397487#0" to="26620384#0"/>
    <trip id="20" depart="10.00" from="37886525" to="-121952583#4"/>
    <trip id="21" depart="10.50" from="-814585369" to="110904634#0"/>
    <trip id="22" depart="11.00" from="-160591231#6" to="-882052276"/>
    <trip id="23" depart="11.50" from="-22897942#2" to="1095217615#8"/>
    <trip id="24" depart="12.00" from="332306557#0" to="125665634#0"/>
    <trip id="25" depart="12.50" from="1170352353#0" to="-727584876#2"/>
    <trip id="26" depart="13.00" from="103504284#0" to="824542215#11"/>
    <trip id="27" depart="13.50" from="36812654#20" to="316018812#1"/>
    <trip id="28" depart="14.00" from="-43569688#2" to="40196945#1"/>
    <trip id="29" depart="14.50" from="-40735733#2" to="130443635#6"/>
    <trip id="30" depart="15.00" from="926732503#0" to="36916539#4"/>
    <trip id="31" depart="15.50" from="23088940#3" to="37837426#2"/>
    <trip id="32" depart="16.00" from="573860847#12" to="48056814#2"/>
    <trip id="33" depart="16.50" from="-816120700" to="-1118317793"/>
    <trip id="34" depart="17.00" from="111238558#1" to="107426175#0"/>
    <trip id="35" depart="17.50" from="-681328860" to="83051447#2"/>
    <trip id="36" depart="18.00" from="659342824#0" to="111859690#1"/>
    <trip id="37" depart="18.50" from="36916541#20" to="133198392#2"/>
    <trip id="38" depart="19.00" from="77914306#0" to="151212521#1"/>
    <trip id="39" depart="19.50" from="1027290198" to="102597012#6"/>
    <trip id="40" depart="20.00" from="23182366#2" to="106904855#0"/>
    <trip id="41" depart="20.50" from="257171430#0" to="757059572#1"/>
    <trip id="42" depart="21.00" from="130443635#2" to="-81632518#4"/>
    <trip id="43" depart="21.50" from="966696334#1" to="192999988#1"/>
    <trip id="45" depart="22.50" from="-243278285#0" to="359380195#5"/>
    <trip id="46" depart="23.00" from="48063707#11" to="134690526#3"/>
    <trip id="47" depart="23.50" from="-135860932#7" to="130443653#9"/>
    <trip id="48" depart="24.00" from="966240518" to="22956026#5"/>
    <trip id="49" depart="24.50" from="87988937#3" to="651764272#9"/>
    <trip id="50" depart="25.00" from="-107309874#1" to="39773187#1"/>
    <trip id="51" depart="25.50" from="375045488#11" to="23034861#3"/>
    <trip id="52" depart="26.00" from="1034770922#1" to="36916541#29"/>
    <trip id="53" depart="26.50" from="-252731823" to="144874012#0"/>
    <trip id="54" depart="27.00" from="139118802#0" to="85426929#4"/>
    <trip id="55" depart="27.50" from="657572430#2" to="106904875#0"/>
    <trip id="56" depart="28.00" from="165339488#2" to="-463853185#1"/>
    <trip id="57" depart="28.50" from="77077234#0" to="667827203#5"/>
    <trip id="58" depart="29.00" from="108646527#1" to="368807876#7"/>
    <trip id="59" depart="29.50" from="28681137#4" to="-38027102#0"/>
    <trip id="60" depart="30.00" from="426578845#3" to="230847356#0"/>
    <trip id="61" depart="30.50" from="44104490#0" to="22981924#0"/>
    <trip id="62" depart="31.00" from="-101332765#5" to="112610109#6"/>
    <trip id="63" depart="31.50" from="-111514164#2" to="816737047"/>
    <trip id="64" depart="32.00" from="661301147#0" to="580542103#1"/>
    <trip id="66" depart="33.00" from="660113175#0" to="83640998#4"/>
    <trip id="67" depart="33.50" from="-173047160" to="170397675#2"/>
    <trip id="68" depart="34.00" from="-149146789#11" to="43976571"/>
    <trip id="69" depart="34.50" from="43012021#1" to="-306423366#0"/>
    <trip id="70" depart="35.00" from="149822407" to="23463796#4"/>
    <trip id="71" depart="35.50" from="1028424336" to="674865542#2"/>
    <trip id="72" depart="36.00" from="133868162#3" to="-756569653#8"/>
    <trip id="73" depart="36.50" from="22885727" to="405055927#7"/>
    <trip id="74" depart="37.00" from="-59712738#1" to="111801806#0"/>
    <trip id="75" depart="37.50" from="96351501#0" to="371630999#6"/>
    <trip id="76" depart="38.00" from="134460803#0" to="220847817#2"/>
    <trip id="77" depart="38.50" from="-286598317#0" to="-83808970#0"/>
    <trip id="78" depart="39.00" from="111981877#0" to="28106934#2"/>
    <trip id="79" depart="39.50" from="-816212416" to="-819766946#1"/>
    <trip id="80" depart="40.00" from="-149819227#3" to="363701247#0"/>
    <trip id="81" depart="40.50" from="-816120700" to="767390779#7"/>
    <trip id="82" depart="41.00" from="60131972#3" to="-145958290#1"/>
    <trip id="83" depart="41.50" from="-8272429#0" to="37640545#7"/>
    <trip id="84" depart="42.00" from="-685440556" to="-327999345"/>
    <trip id="85" depart="42.50" from="81892451" to="257357068#3"/>
    <trip id="86" depart="43.00" from="149425931#0" to="486933215"/>
    <trip id="87" depart="43.50" from="49723092#2" to="-572748508#5"/>
    <trip id="88" depart="44.00" from="-200750063" to="135860932#5"/>
    <trip id="89" depart="44.50" from="133868177#3" to="154716226#11"/>
    <trip id="90" depart="45.00" from="38323010#1" to="37679702#3"/>
    <trip id="91" depart="45.50" from="900740107#1" to="-192659132#0"/>
    <trip id="92" depart="46.00" from="130443660#0" to="1149694682#0"/>
    <trip id="93" depart="46.50" from="607393606#2" to="103428634#1"/>
    <trip id="94" depart="47.00" from="-563843021#0" to="149190770#1"/>
    <trip id="95" depart="47.50" from="133855825#1" to="1095462865"/>
    <trip id="96" depart="48.00" from="-893901258#1" to="81355072#4"/>
    <trip id="97" depart="48.50" from="134690548#0" to="655554539"/>
    <trip id="98" depart="49.00" from="23026016#2" to="-130443630#16"/>
    <trip id="99" depart="49.50" from="996232952#1" to="586896066#1"/>
    <trip id="100" depart="50.00" from="876131440" to="81563077#9"/>
    <trip id="101" depart="50.50" from="58759055#1" to="-400406089#2"/>
    <trip id="102" depart="51.00" from="154716209#4" to="-765543785#0"/>
    <trip id="103" depart="51.50" from="130443651#0" to="-133661501#6"/>
    <trip id="104" depart="52.00" from="121952558#5" to="900926804#2"/>
    <trip id="105" depart="52.50" from="1028424336" to="486666533#17"/>
    <trip id="106" depart="53.00" from="145954704#3" to="134690556#1"/>
    <trip id="107" depart="53.50" from="862454067#0" to="96351497#0"/>
    <trip id="108" depart="54.00" from="23066443#5" to="39685722#0"/>
    <trip id="109" depart="54.50" from="-38314397#1" to="111262067#5"/>
    <trip id="110" depart="55.00" from="876131437#1" to="26982330#6"/>
    <trip id="111" depart="55.50" from="22907738#11" to="42737802#2"/>
    <trip id="112" depart="56.00" from="-134460774#11" to="27782011#5"/>
    <trip id="113" depart="56.50" from="166727313#0" to="621959187#1"/>
    <trip id="114" depart="57.00" from="-397537026" to="873160686#0"/>
    <trip id="115" depart="57.50" from="-160591234#4" to="-552708120#1"/>
    <trip id="116" depart="58.00" from="26982395#6" to="37715948#1"/>
    <trip id="117" depart="58.50" from="-82290357#0" to="-257171432#0"/>
    <trip id="118" depart="59.00" from="69931595#2" to="1023658748#0"/>
    <trip id="119" depart="59.50" from="26982330#3" to="330713238#1"/>
    <trip id="120" depart="60.00" from="133661501#4" to="27781952#1"/>
    <trip id="121" depart="60.50" from="191228010" to="82207182"/>
    <trip id="122" depart="61.00" from="-621959187#1" to="395600340#2"/>
    <trip id="123" depart="61.50" from="-829883366" to="133198392#5"/>
    <trip id="124" depart="62.00" from="37290625#19" to="111514165#0"/>
    <trip id="125" depart="62.50" from="111238565#0" to="43140496#1"/>
    <trip id="126" depart="63.00" from="-149822413#1" to="151167659#0"/>
    <trip id="127" depart="63.50" from="992676612" to="966122021#1"/>
    <trip id="128" depart="64.00" from="-151167655#2" to="-762457085#1"/>
    <trip id="129" depart="64.50" from="1028424336" to="819816251"/>
    <trip id="130" depart="65.00" from="667668276#2" to="685215224"/>
    <trip id="131" depart="65.50" from="116820397#4" to="-38103321"/>
    <trip id="132" depart="66.00" from="572744532#1" to="38081511#0"/>
    <trip id="133" depart="66.50" from="290005765#1" to="914557939#1"/>
    <trip id="134" depart="67.00" from="36903944#12" to="-1055422268#3"/>
    <trip id="135" depart="67.50" from="551896092#15" to="111504831#6"/>
    <trip id="137" depart="68.50" from="-36875183#2" to="-243276783#1"/>
    <trip id="138" depart="69.00" from="-23490358#1" to="237436107#1"/>
    <trip id="139" depart="69.50" from="1055410289#0" to="302763280#1"/>
    <trip id="140" depart="70.00" from="38081496#0" to="-657572430#4"/>
    <trip id="141" depart="70.50" from="329301856#3" to="107166846#3"/>
    <trip id="142" depart="71.00" from="154844465#2" to="767390779#3"/>
    <trip id="143" depart="71.50" from="58413962#3" to="-173992155#0"/>
    <trip id="144" depart="72.00" from="133868177#3" to="1094437534#3"/>
    <trip id="145" depart="72.50" from="-104148308#0" to="463853185#1"/>
    <trip id="146" depart="73.00" from="332861395#0" to="106836308#4"/>
    <trip id="147" depart="73.50" from="39977260#4" to="23575175#2"/>
    <trip id="148" depart="74.00" from="134009740#6" to="-105601667#0"/>
    <trip id="149" depart="74.50" from="-154716204#0" to="690999415#1"/>
    <trip id="150" depart="75.00" from="757059565#2" to="23182423#4"/>
    <trip id="151" depart="75.50" from="572744559#1" to="27781803#3"/>
    <trip id="152" depart="76.00" from="-37973566#6" to="-292960610#0"/>
    <trip id="153" depart="76.50" from="110678682#10" to="757534983#0"/>
    <trip id="154" depart="77.00" from="481884819#8" to="651764272#8"/>
    <trip id="155" depart="77.50" from="748671327#1" to="-740993627#0"/>
    <trip id="156" depart="78.00" from="-893901258#0" to="-207858426"/>
    <trip id="157" depart="78.50" from="44468712#19" to="697584770#3"/>
    <trip id="158" depart="79.00" from="132316384#2" to="332306557#2"/>
    <trip id="159" depart="79.50" from="-38306581#4" to="816876620"/>
    <trip id="160" depart="80.00" from="62094934#1" to="881916064#5"/>
    <trip id="161" depart="80.50" from="50339443#1" to="685440567"/>
    <trip id="162" depart="81.00" from="-111981879#0" to="40760631#1"/>
    <trip id="163" depart="81.50" from="111801783" to="81792644"/>
    <trip id="164" depart="82.00" from="48978999#0" to="657572429#3"/>
    <trip id="165" depart="82.50" from="50339443#1" to="107426161#3"/>
    <trip id="166" depart="83.00" from="463853185#4" to="-22898291#1"/>
    <trip id="167" depart="83.50" from="651764271#1" to="646315031#1"/>
    <trip id="168" depart="84.00" from="-765105682#0" to="572328742#2"/>
    <trip id="169" depart="84.50" from="149023979#1" to="1116516509#1"/>
    <trip id="170" depart="85.00" from="481545836" to="-85978184#0"/>
    <trip id="171" depart="85.50" from="-1118326501" to="-584766946"/>
    <trip id="172" depart="86.00" from="111702082#1" to="657572430#2"/>
    <trip id="173" depart="86.50" from="875446016#1" to="1097325369"/>
    <trip id="174" depart="87.00" from="359380195#3" to="133615149"/>
    <trip id="175" depart="87.50" from="893901266" to="23028464#6"/>
    <trip id="176" depart="88.00" from="824542215#19" to="-243270141#1"/>
    <trip id="177" depart="88.50" from="87776950#0" to="-459789841#1"/>
    <trip id="178" depart="89.00" from="873283811#7" to="107425018#1"/>
    <trip id="179" depart="89.50" from="-237436107#2" to="141433459"/>
    <trip id="180" depart="90.00" from="38320044#4-AddedOnRampEdge" to="111859620#1"/>
    <trip id="181" depart="90.50" from="28193008#0" to="194336585#1"/>
    <trip id="182" depart="91.00" from="125665635#4" to="26540081#11"/>
    <trip id="183" depart="91.50" from="-95514276#1" to="38306581#7"/>
    <trip id="184" depart="92.00" from="-1023658749" to="81563075#1"/>
    <trip id="185" depart="92.50" from="22876733#0" to="397430748#0"/>
    <trip id="186" depart="93.00" from="39977267#2" to="376503487#2"/>
    <trip id="187" depart="93.50" from="1160179613#5" to="-139070454#7"/>
    <trip id="188" depart="94.00" from="37139965#1" to="112950876"/>
    <trip id="189" depart="94.50" from="110904688#1" to="60131972#1"/>
    <trip id="190" depart="95.00" from="38081517#1" to="1115285030"/>
    <trip id="191" depart="95.50" from="110801308#6" to="134119964#0"/>
    <trip id="192" depart="96.00" from="130443659#5" to="1112476318#2"/>
    <trip id="193" depart="96.50" from="-330720250" to="134640686#2"/>
    <trip id="195" depart="97.50" from="756859271#0" to="323978916#3"/>
    <trip id="196" depart="98.00" from="1095217615#7" to="23313517#7"/>
    <trip id="197" depart="98.50" from="-101186594" to="110801311#3"/>
    <trip id="198" depart="99.00" from="134124998#0" to="272236474#0"/>
    <trip id="199" depart="99.50" from="36916539#1" to="154716208#0"/>
    <trip id="200" depart="100.00" from="134640700#6" to="-765543783#5"/>
    <trip id="201" depart="100.50" from="149449754#5" to="758105911"/>
    <trip id="202" depart="101.00" from="481884819#6" to="-40870794#1"/>
    <trip id="203" depart="101.50" from="-172498376" to="208420935"/>
    <trip id="204" depart="102.00" from="326284077" to="1137802675#0"/>
    <trip id="205" depart="102.50" from="552361913#7" to="43018568#2"/>
    <trip id="206" depart="103.00" from="37305404#0" to="-83808966#1"/>
    <trip id="207" depart="103.50" from="-58780682#6" to="-1096795080#0"/>
    <trip id="208" depart="104.00" from="-8668802#2" to="158526051#4"/>
    <trip id="209" depart="104.50" from="58768055#25" to="-148961543"/>
    <trip id="210" depart="105.00" from="133198392#3" to="36357298#1"/>
    <trip id="211" depart="105.50" from="-58414208#6" to="37981428#2"/>
    <trip id="212" depart="106.00" from="159296195#0" to="1016808077"/>
    <trip id="213" depart="106.50" from="36916541#35" to="-104230903#0"/>
    <trip id="214" depart="107.00" from="40745994#0" to="457425214#5"/>
    <trip id="215" depart="107.50" from="-23463862" to="134898666#1"/>
    <trip id="216" depart="108.00" from="-452931327#10" to="863937087#17"/>
    <trip id="218" depart="109.00" from="-889379656" to="60131978#0"/>
    <trip id="219" depart="109.50" from="148591954" to="533837088#4"/>
    <trip id="220" depart="110.00" from="37228341#1" to="921849958#2"/>
    <trip id="221" depart="110.50" from="272236474#1" to="83710621"/>
    <trip id="222" depart="111.00" from="713797729" to="31860136#6"/>
    <trip id="223" depart="111.50" from="38081510#2" to="190658505#2"/>
    <trip id="224" depart="112.00" from="572714688#1" to="23313517#5"/>
    <trip id="225" depart="112.50" from="745220416#1" to="41900657#1"/>
    <trip id="226" depart="113.00" from="149819238#0" to="106568053#2"/>
    <trip id="227" depart="113.50" from="-880575679#0" to="36876578#8"/>
    <trip id="228" depart="114.00" from="42979511" to="22876730#0"/>
    <trip id="229" depart="114.50" from="31860136#0" to="108646518#3"/>
    <trip id="230" depart="115.00" from="-154889905#1" to="1107782312"/>
    <trip id="231" depart="115.50" from="105308013#1" to="112174722#2"/>
    <trip id="232" depart="116.00" from="22897740#6" to="-36857683#3"/>
    <trip id="233" depart="116.50" from="-816876620" to="37973571#0"/>
    <trip id="234" depart="117.00" from="37908666#10" to="-134572344#1"/>
    <trip id="235" depart="117.50" from="132319217" to="23124243#8"/>
    <trip id="236" depart="118.00" from="133259885#4" to="-678628384#6"/>
    <trip id="237" depart="118.50" from="133849457#5" to="765642597"/>
    <trip id="238" depart="119.00" from="257171425#5" to="37973572#7"/>
    <trip id="239" depart="119.50" from="59618373#3" to="447699318#4"/>
    <trip id="240" depart="120.00" from="121952583#6" to="-104390538#0"/>
    <trip id="241" depart="120.50" from="112950832#0" to="43273620#6"/>
    <trip id="243" depart="121.50" from="133661501#0" to="426578845#5"/>
    <trip id="244" depart="122.00" from="22956026#2" to="302426937#1"/>
    <trip id="245" depart="122.50" from="-757053235#0" to="-81792553#0"/>
    <trip id="246" depart="123.00" from="134420437#6" to="-111604743#0"/>
    <trip id="247" depart="123.50" from="1118326501" to="37761132#1"/>
    <trip id="248" depart="124.00" from="131645490#4" to="-39977263#1"/>
    <trip id="249" depart="124.50" from="149146783#8" to="-29495014#0"/>
    <trip id="250" depart="125.00" from="312270947#0" to="-110904606#4"/>
    <trip id="251" depart="125.50" from="128039757" to="25568829#1"/>
    <trip id="252" depart="126.00" from="-112568282#21" to="36932294#0"/>
    <trip id="253" depart="126.50" from="-36934168" to="154484171#4"/>
    <trip id="254" depart="127.00" from="-132319228" to="130443630#7"/>
    <trip id="255" depart="127.50" from="-681848896" to="112610160#3"/>
    <trip id="256" depart="128.00" from="424269158#4" to="130443630#9"/>
    <trip id="257" depart="128.50" from="40760618#5" to="580542103#8"/>
    <trip id="258" depart="129.00" from="-914405033" to="-154716196#8"/>
    <trip id="259" depart="129.50" from="-111504826#2" to="230847356#1"/>
    <trip id="260" depart="130.00" from="99754717#1" to="1174493054#3"/>
    <trip id="261" depart="130.50" from="36857139#1" to="481814154"/>
    <trip id="262" depart="131.00" from="36876577#10" to="435787896#0"/>
    <trip id="263" depart="131.50" from="83710623" to="-60131785#0"/>
    <trip id="264" depart="132.00" from="-111596216#4" to="-37973566#6"/>
    <trip id="265" depart="132.50" from="-328929610#1" to="37640546#7"/>
    <trip id="266" depart="133.00" from="23262202#3" to="-80877381#8"/>
    <trip id="267" depart="133.50" from="37830679#1" to="450664579"/>
    <trip id="268" depart="134.00" from="-41900657#1" to="309843440#3"/>
    <trip id="269" depart="134.50" from="40735732#2" to="-23800991#1"/>
    <trip id="270" depart="135.00" from="552708119#5" to="875445772#0"/>
    <trip id="271" depart="135.50" from="-23683989#4" to="-110678664#11"/>
    <trip id="272" depart="136.00" from="110904629#0" to="37738036#8"/>
    <trip id="273" depart="136.50" from="863937087#9" to="133259881#1"/>
    <trip id="274" depart="137.00" from="38027668#7" to="-149190777#4"/>
    <trip id="275" depart="137.50" from="37709787#1" to="359380194#1"/>
    <trip id="276" depart="138.00" from="-22932504" to="469372935#0"/>
    <trip id="277" depart="138.50" from="58770725#0" to="294507534#4"/>
    <trip id="278" depart="139.00" from="-286598317#2" to="894727042#0"/>
    <trip id="279" depart="139.50" from="447701120#8" to="116820389#2"/>
    <trip id="280" depart="140.00" from="134124979#5" to="127949012#1"/>
    <trip id="281" depart="140.50" from="170563870" to="1158706537#2"/>
    <trip id="282" depart="141.00" from="58768055#21" to="572744581#1"/>
    <trip id="283" depart="141.50" from="-23262356#1" to="873160686#0"/>
    <trip id="284" depart="142.00" from="332306556#0" to="572748523#7"/>
    <trip id="285" depart="142.50" from="37942667#3" to="145954707#13"/>
    <trip id="286" depart="143.00" from="39671245#0" to="875445775#0"/>
    <trip id="287" depart="143.50" from="1046756042#0" to="558288366#2"/>
    <trip id="288" depart="144.00" from="22876729#0" to="166605395#1"/>
    <trip id="289" depart="144.50" from="134420437#18" to="405900733#4"/>
    <trip id="290" depart="145.00" from="103851605" to="61293132#0"/>
    <trip id="291" depart="145.50" from="572714689#2" to="-160600494#1"/>
    <trip id="292" depart="146.00" from="667827203#11" to="1015878042#2"/>
    <trip id="293" depart="146.50" from="149116234#3" to="31652636#1"/>
    <trip id="294" depart="147.00" from="121952560#0" to="-111596216#6"/>
    <trip id="295" depart="147.50" from="58777841#2" to="-48801898#0"/>
    <trip id="296" depart="148.00" from="-681848897" to="50339443#4"/>
    <trip id="297" depart="148.50" from="111995476#3" to="685440558"/>
    <trip id="298" depart="149.00" from="37837434#0" to="1090748961"/>
    <trip id="299" depart="149.50" from="-106904879#1" to="83709549#15"/>
    <trip id="300" depart="150.00" from="-173047160" to="397430750#10"/>
    <trip id="301" depart="150.50" from="154844465#3" to="43836954#5"/>
    <trip id="302" depart="151.00" from="37709787#1" to="370092974#1"/>
    <trip id="303" depart="151.50" from="154986394#10" to="49578366#2"/>
    <trip id="304" depart="152.00" from="-191381259" to="-82225016#1"/>
    <trip id="305" depart="152.50" from="37725936#0" to="111702090#1"/>
    <trip id="306" depart="153.00" from="25568840#0" to="157367526#3"/>
    <trip id="307" depart="153.50" from="207858427#0" to="135016488#4"/>
    <trip id="308" depart="154.00" from="40271562#4" to="1130879897#1"/>
    <trip id="309" depart="154.50" from="37856845#0" to="108329426#2"/>
    <trip id="311" depart="155.50" from="-58233300#3" to="-257171429#2"/>
    <trip id="312" depart="156.00" from="220847824#3" to="44104491#1"/>
    <trip id="313" depart="156.50" from="-543492893#0" to="-801907518"/>
    <trip id="314" depart="157.00" from="154716197#1" to="39977260#0"/>
    <trip id="315" depart="157.50" from="881916066#5" to="22906913#4"/>
    <trip id="316" depart="158.00" from="106581160#0" to="-207854783#0"/>
    <trip id="317" depart="158.50" from="-58414208#2" to="-858064349#3"/>
    <trip id="318" depart="159.00" from="-481228653" to="-106568791#0"/>
    <trip id="319" depart="159.50" from="217850378" to="108637182#0"/>
    <trip id="320" depart="160.00" from="881905842#2" to="237436107#6"/>
    <trip id="321" depart="160.50" from="37771903#1" to="-286598317#0"/>
    <trip id="322" depart="161.00" from="636566937#5" to="172409588#1"/>
    <trip id="323" depart="161.50" from="652758223" to="257685415#0"/>
    <trip id="324" depart="162.00" from="149190770#2" to="149116215"/>
    <trip id="325" depart="162.50" from="-524463976#11" to="-130443657"/>
    <trip id="326" depart="163.00" from="8272313#8" to="160587552#1"/>
    <trip id="327" depart="163.50" from="559747870#1" to="133849456#1"/>
    <trip id="328" depart="164.00" from="-154409621#0" to="36334751#4"/>
    <trip id="329" depart="164.50" from="-133661501#3" to="-37830678#1"/>
    <trip id="330" depart="165.00" from="23182640#4" to="111604747"/>
    <trip id="331" depart="165.50" from="956017698#0" to="-256370023#0"/>
    <trip id="333" depart="166.50" from="48056807#1" to="-839327616#5"/>
    <trip id="334" depart="167.00" from="191213703" to="149402452"/>
    <trip id="335" depart="167.50" from="134690536#0" to="6502123#8"/>
    <trip id="336" depart="168.00" from="929173037#0" to="1116516510#1"/>
    <trip id="337" depart="168.50" from="306766279#0" to="316299338#12"/>
    <trip id="338" depart="169.00" from="39971283#6" to="83676860#3"/>
    <trip id="339" depart="169.50" from="-661251715" to="-755147086#9"/>
    <trip id="340" depart="170.00" from="369518908#1" to="-38081508#1"/>
    <trip id="341" depart="170.50" from="-43907780#2" to="-149146787#10"/>
    <trip id="342" depart="171.00" from="-103428639#0" to="149394531"/>
    <trip id="343" depart="171.50" from="26982286#1" to="110904688#2"/>
    <trip id="344" depart="172.00" from="-816876620" to="38228091#3"/>
    <trip id="345" depart="172.50" from="37856846#2" to="149819239#1"/>
    <trip id="346" depart="173.00" from="37679195#1" to="81400143#0"/>
    <trip id="347" depart="173.50" from="466900337#2" to="353164584"/>
    <trip id="348" depart="174.00" from="37041493#2" to="82091200"/>
    <trip id="349" depart="174.50" from="133868191#3" to="23182366#2"/>
    <trip id="350" depart="175.00" from="36812654#11" to="779031154#4"/>
    <trip id="351" depart="175.50" from="56244273#1" to="-148961532"/>
    <trip id="352" depart="176.00" from="-41238895" to="1117123169#3"/>
    <trip id="353" depart="176.50" from="40735736#1" to="257171431#0"/>
    <trip id="354" depart="177.00" from="107289450#1" to="-265600014#2"/>
    <trip id="355" depart="177.50" from="37679200#21" to="38027671#2"/>
    <trip id="356" depart="178.00" from="828546476#0" to="185594231#4"/>
    <trip id="357" depart="178.50" from="158526051#2" to="-152825882#1"/>
    <trip id="358" depart="179.00" from="-122258528#4" to="138713421#0"/>
    <trip id="359" depart="179.50" from="111514164#3" to="104148308#1"/>
    <trip id="360" depart="180.00" from="-186760727#0" to="873283812#0"/>
    <trip id="361" depart="180.50" from="572744594#2" to="26293224#1"/>
    <trip id="362" depart="181.00" from="839130025#1" to="996232968#5"/>
    <trip id="363" depart="181.50" from="37290628#0" to="107539769#3"/>
    <trip id="364" depart="182.00" from="-122368887" to="43684742#6"/>
    <trip id="365" depart="182.50" from="149230224#0" to="372173607"/>
    <trip id="366" depart="183.00" from="79606555#6" to="-48765724#1"/>
    <trip id="367" depart="183.50" from="257171438" to="36838612#1"/>
    <trip id="368" depart="184.00" from="154986395#0" to="-171930548"/>
    <trip id="369" depart="184.50" from="112610139#0" to="1136460102#2"/>
    <trip id="370" depart="185.00" from="37278469#1" to="646280627#1"/>
    <trip id="371" depart="185.50" from="1117123169#6" to="37973568#2"/>
    <trip id="372" depart="186.00" from="1072454155" to="833993643#0"/>
    <trip id="373" depart="186.50" from="531477507#0" to="23463811#0"/>
    <trip id="374" depart="187.00" from="144874012#0" to="111859690#1"/>
    <trip id="375" depart="187.50" from="111549921#0" to="877851359#0"/>
    <trip id="376" depart="188.00" from="131645490#0" to="207858126#1"/>
    <trip id="377" depart="188.50" from="925606978#0" to="37351086#2"/>
    <trip id="378" depart="189.00" from="22907751#0" to="134417910#4"/>
    <trip id="379" depart="189.50" from="-56015537#2" to="122368885#5"/>
    <trip id="380" depart="190.00" from="41245532#5" to="35469324#1"/>
    <trip id="381" depart="190.50" from="421109897#6" to="-657572430#3"/>
    <trip id="382" depart="191.00" from="23018163#2" to="816157290#1"/>
    <trip id="383" depart="191.50" from="134460803#1" to="38027665#11"/>
    <trip id="384" depart="192.00" from="-287540612" to="881245057#1"/>
    <trip id="385" depart="192.50" from="28681137#2" to="-956017698#1"/>
    <trip id="386" depart="193.00" from="-39831540#3" to="23490292#4"/>
    <trip id="387" depart="193.50" from="23027995#11" to="-182851488"/>
    <trip id="388" depart="194.00" from="946456581#1" to="80347021#4"/>
    <trip id="389" depart="194.50" from="149116217#3" to="-251612439"/>
    <trip id="390" depart="195.00" from="572740880" to="185581486#3"/>
    <trip id="391" depart="195.50" from="38027983#6" to="192219877#1"/>
    <trip id="392" depart="196.00" from="1055733688#0" to="58414208#6"/>
    <trip id="393" depart="196.50" from="890119492#0" to="1015878042#0"/>
    <trip id="394" depart="197.00" from="23027965#1" to="130443665#9"/>
    <trip id="395" depart="197.50" from="80869692#1" to="192217483#1"/>
    <trip id="396" depart="198.00" from="666249836#4" to="657572429#1"/>
    <trip id="397" depart="198.50" from="105602698" to="49001120#2"/>
    <trip id="398" depart="199.00" from="133203518#2" to="82207172#1"/>
    <trip id="399" depart="199.50" from="170590356#3" to="572744499#2"/>
    <trip id="400" depart="200.00" from="106581160#0" to="111504820#3"/>
    <trip id="401" depart="200.50" from="257357078#0" to="992676613#2"/>
    <trip id="402" depart="201.00" from="154881339#0" to="-37730532#6"/>
    <trip id="403" depart="201.50" from="22876733#2" to="116810536#0"/>
    <trip id="404" depart="202.00" from="23027994#5" to="23182332#1"/>
    <trip id="405" depart="202.50" from="145954707#0" to="112568304#4"/>
    <trip id="406" depart="203.00" from="-561528801" to="38027102#8"/>
    <trip id="407" depart="203.50" from="240482838#4" to="-890222451#0"/>
    <trip id="408" depart="204.00" from="439021002#0" to="-1177239717#0"/>
    <trip id="409" depart="204.50" from="40029751#1" to="38103345#4"/>
    <trip id="410" depart="205.00" from="50624777#1" to="132316382#6"/>
    <trip id="411" depart="205.50" from="37138416#4" to="572744517#0"/>
    <trip id="412" depart="206.00" from="890222451#2" to="179917799#4"/>
    <trip id="413" depart="206.50" from="-1186075027" to="186760727#2"/>