<?xml version="1.0" encoding="UTF-8"?>

<!-- generated on 2023-12-18 10:17:26 by Eclipse SUMO duarouter Version 1.12.0
<configuration xmlns:xsi="http://www.w3.org/2001/XMLSchema-instance" xsi:noNamespaceSchemaLocation="http://sumo.dlr.de/xsd/duarouterConfiguration.xsd">

    <input>
        <net-file value="turin.net.xml"/>
        <route-files value="turin.trips.xml"/>
    </input>

    <output>
        <output-file value="turin.rou.xml"/>
        <alternatives-output value="turin.rou.alt.xml"/>
    </output>

    <report>
        <ignore-errors value="true"/>
    </report>

</configuration>
-->

<routes xmlns:xsi="http://www.w3.org/2001/XMLSchema-instance" xsi:noNamespaceSchemaLocation="http://sumo.dlr.de/xsd/routes_file.xsd">
    <vehicle id="0" depart="0.00">
        <route edges="36917807#1 36917807#2 36857683#1 36857683#2 36857683#3 257171429#0 257171429#2 257171429#3 257171428 111801792 116810574 257171432#0 257171432#1 257171427 257171430#0 257171430#2 257171426#0 257171426#1 257028826#0 257028826#2 116810527 -966246757 -160591231#6 -160591231#5 -160591231#3 -1090772073"/>
    </vehicle>
    <vehicle id="1" depart="0.50">
        <route edges="108646524#10 -108646524#10 -108646524#8 -108646524#6 -108646524#5 -108646524#3 -108646524#2 -108722025#9 -108722025#8 -108722025#7 -108722025#6 -108722025#4 -108722025#2 -108722025#1 -149146787#13 -149146787#10 -149146787#9 -149146787#7 -149146787#5 -149146787#4 -149146787#2 -149146787#0 -149146789#13 -149146789#11 -149146789#10 -149146789#9 -149146789#7 -149146789#5 -149146789#3 -149146789#2 111604727#1 108646533#0 108646533#1 108646533#2 108646533#4 160591229#0 160591231#1 -1090772073"/>
    </vehicle>
    <vehicle id="2" depart="1.00">
        <route edges="405900732#2 -405900732#2 -405900732#1 -405900732#0 108329426#0 108329426#1 69931595#0 69931595#1 69931595#2 69931595#3 69931595#4 69931595#5 290005765#1 290005765#2 290005765#4 290005765#5 130443630#0 130443630#1 130443630#2 130443630#4 130443630#5 130443630#6 130443630#7 130443630#9 130443630#10 130443630#11 130443630#12 130443630#13 130443630#14 130443630#15 179692877#0 42976406#6 42976406#8 42976406#9 42976406#11 122301988#0 122301988#1 880555131#0 880555131#2 154500688#0 154500688#2 154500688#4 154500688#6 874024523 47289660#0 47289660#1 50338703#0 -873278976#4 372314939#1 372314939#3 1102650222#0 1102650222#1 37044362#0 37044362#1 1102650221#0 1102650221#2 1102650221#3 1102650221#4 1102650221#5 1102650221#7 1102650221#8 116810533#0 116810533#2 85426928#0 85426928#1 85426929#0 85426929#2 85426929#4 85426929#5 85426929#6 -966246757 -160591231#6 -160591231#5 -160591231#3 -1090772073"/>
    </vehicle>
    <vehicle id="4" depart="2.00">
        <route edges="134572341#1 902976104 134572336#0 134572336#1 134572336#2 134572336#5 134572336#7 490758053 405900731#0 405900731#1 405900731#3 405900731#4 405900731#7 37973566#0 37973566#2 37973566#3 37973566#5 37973566#6 130443630#0 130443630#1 130443630#2 130443630#4 130443630#5 130443630#6 130443630#7 130443630#9 130443630#10 130443630#11 130443630#12 130443630#13 130443630#14 130443630#15 179692877#0 42976406#6 42976406#8 42976406#9 42976406#11 122301988#0 122301988#1 880555131#0 880555131#2 154500688#0 154500688#2 154500688#4 154500688#6 874024523 47289660#0 47289660#1 50338703#0 -873278976#4 372314939#1 372314939#3 1102650222#0 1102650222#1 37044362#0 37044362#1 1102650221#0 1102650221#2 1102650221#3 1102650221#4 1102650221#5 1102650221#7 1102650221#8 116810533#0 116810533#2 85426928#0 85426928#1 85426929#0 85426929#2 85426929#4 85426929#5 85426929#6 -966246757 -160591231#6 -160591231#5 -160591231#3 -1090772073"/>
    </vehicle>
    <vehicle id="5" depart="2.50">
        <route edges="-862447325#0 862447325#0 -170590353#9 -170590353#6 -170590353#4 -170590353#2 -170590353#0 -167693273 -351678831#8 -351678831#5 -351678831#4 -351678831#2 -80339839#3 105283539 657572413#0 116810552 116810533#0 116810533#2 85426928#0 85426928#1 85426929#0 85426929#2 85426929#4 85426929#5 85426929#6 -966246757 -160591231#6 -160591231#5 -160591231#3 -1090772073"/>
    </vehicle>
    <vehicle id="6" depart="3.00">
        <route edges="-112610129#1 -112610129#0 112610129#0 112610129#1 112610129#3 112568340#0 112568340#1 112568340#2 112568340#3 112568340#5 112950837 132527904 42045175#0 42045175#1 44580449 80046393 257800508#0 257800508#2 134124985 257800507#0 257800507#1 257800506#0 257800506#2 257800506#4 111604730#0 111604730#4 257685405#0 257685398#0 257685398#1 257685399 257685418#2 257685411 257685402 160601725 257685415#0 257685415#1 257685408 257538840#0 257538840#2 257538839#0 257538839#1 257538839#4 257538838#0 257538838#1 257538841#0 257538842#0 257538842#1 111801786#0 111514164#0 111514164#3 257171431#0 257171431#1 257171431#2 257171429#0 257171429#2 257171429#3 257171428 111801792 116810574 257171432#0 257171432#1 257171427 257171430#0 257171430#2 257171426#0 257171426#1 257028826#0 257028826#2 116810527 -966246757 -160591231#6 -160591231#5 -160591231#3 -1090772073"/>
    </vehicle>
    <vehicle id="7" depart="3.50">
        <route edges="37197350#2 1149702462#0 1149702462#1 1149702461#0 1149702461#1 -134009730#11 -134009730#9 -134009730#8 -134009730#7 -134009730#6 -134009730#5 -134009730#4 -134009730#3 -134009730#2 -134009730#1 -134124993#3 -134124993#1 666410867#1 666410867#3 666410867#4 873278979#0 666410866#0 666410866#2 584766946 172498376 172498377 584766944#0 584766944#3 672510293#0 672510293#2 672510293#3 172498378#0 873278977 80337280#0 80337280#2 80337280#3 80337280#4 459789838#3 459789838#4 459789838#5 372314939#1 372314939#3 1102650222#0 1102650222#1 37044362#0 37044362#1 1102650221#0 1102650221#2 1102650221#3 1102650221#4 1102650221#5 1102650221#7 1102650221#8 116810533#0 116810533#2 85426928#0 85426928#1 85426929#0 85426929#2 85426929#4 85426929#5 85426929#6 -966246757 -160591231#6 -160591231#5 -160591231#3 -1090772073"/>
    </vehicle>
    <vehicle id="8" depart="4.00">
        <route edges="-873157351#5 149422195#0 149422195#1 160587545#1 160587545#2 862447326#0 -170590353#12 -170590353#9 -170590353#6 -170590353#4 -170590353#2 -170590353#0 -167693273 -351678831#8 -351678831#5 -351678831#4 -351678831#2 -80339839#3 105283539 657572413#0 116810552 116810533#0 116810533#2 85426928#0 85426928#1 85426929#0 85426929#2 85426929#4 85426929#5 85426929#6 -966246757 -160591231#6 -160591231#5 -160591231#3 -1090772073"/>
    </vehicle>
    <vehicle id="9" depart="4.50">
        <route edges="551862986 134460813#0 134460813#1 134460813#2 134460813#3 134460813#4 134460813#5 134460813#6 -81563062 81563071#0 81563071#1 133960560#1 133960560#2 874014395 560312459#0 560312459#1 560312459#2 560312459#3 560312459#4 38118392#1 67099050#0 122258522 122258526#0 122258526#1 122258526#2 122258526#4 372314939#1 372314939#3 1102650222#0 1102650222#1 37044362#0 37044362#1 1102650221#0 1102650221#2 1102650221#3 1102650221#4 1102650221#5 1102650221#7 1102650221#8 116810533#0 116810533#2 85426928#0 85426928#1 85426929#0 85426929#2 85426929#4 85426929#5 85426929#6 -966246757 -160591231#6 -160591231#5 -160591231#3 -1090772073"/>
    </vehicle>
    <vehicle id="10" depart="5.00">
        <route edges="514292067#0 697584768 481463190#0 116810552 116810533#0 116810533#2 85426928#0 85426928#1 85426929#0 85426929#2 85426929#4 85426929#5 85426929#6 -966246757 -160591231#6 -160591231#5 -160591231#3 -1090772073"/>
    </vehicle>
    <vehicle id="11" depart="5.50">
        <route edges="1167094067#0 1167094067#1 1167094067#2 1167094067#3 1167094067#5 828546476#3 37632249 130443671 77809878#0 77809878#1 77809878#2 130443647#2 130443647#3 130443647#4 130443647#5 130443647#6 130443647#7 130443647#8 666707220#0 666707220#1 666707220#2 172399117 160587539 77077234#0 77077234#1 77077234#2 77077234#3 77077234#4 666707215#0 666707215#1 874006665 160587553 874006667#0 874006667#1 874006667#2 874006667#3 160584975#1 160584975#2 160584975#4 160584977 160584979 67099050#0 122258522 122258526#0 122258526#1 122258526#2 122258526#4 372314939#1 372314939#3 1102650222#0 1102650222#1 37044362#0 37044362#1 1102650221#0 1102650221#2 1102650221#3 1102650221#4 1102650221#5 1102650221#7 1102650221#8 116810533#0 116810533#2 85426928#0 85426928#1 85426929#0 85426929#2 85426929#4 85426929#5 85426929#6 -966246757 -160591231#6 -160591231#5 -160591231#3 -1090772073"/>
    </vehicle>
    <vehicle id="12" depart="6.00">
        <route edges="873283814#1 873283811#0 873283811#1 873283811#2 48502796#7 48502796#8 48502796#9 48502796#10 873283815#0 873283815#2 873283812#0 559747872#0 559747872#1 559747872#2 559747872#3 559747872#5 559747872#6 559747872#7 559747872#8 559747872#12 559747872#14 559747872#15 559747872#17 172498376 172498377 584766944#0 584766944#3 672510293#0 672510293#2 672510293#3 172498378#0 873278977 80337280#0 80337280#2 80337280#3 80337280#4 459789838#3 459789838#4 459789838#5 372314939#1 372314939#3 1102650222#0 1102650222#1 37044362#0 37044362#1 1102650221#0 1102650221#2 1102650221#3 1102650221#4 1102650221#5 1102650221#7 1102650221#8 116810533#0 116810533#2 85426928#0 85426928#1 85426929#0 85426929#2 85426929#4 85426929#5 85426929#6 -966246757 -160591231#6 -160591231#5 -160591231#3 -1090772073"/>
    </vehicle>
    <vehicle id="13" depart="6.50">
        <route edges="-239720651#2 37837436 793496327#1 793496328 793496331 793496329#0 38027102#0 38027102#1 38027102#2 38027102#3 38027102#4 38027102#5 38027102#8 38027102#9 424518798#0 424518798#3 59159262#0 405900731#7 37973566#0 37973566#2 37973566#3 37973566#5 37973566#6 130443630#0 130443630#1 130443630#2 130443630#4 130443630#5 130443630#6 130443630#7 130443630#9 130443630#10 130443630#11 130443630#12 130443630#13 130443630#14 130443630#15 179692877#0 42976406#6 42976406#8 42976406#9 42976406#11 122301988#0 122301988#1 880555131#0 880555131#2 154500688#0 154500688#2 154500688#4 154500688#6 874024523 47289660#0 47289660#1 50338703#0 -873278976#4 372314939#1 372314939#3 1102650222#0 1102650222#1 37044362#0 37044362#1 1102650221#0 1102650221#2 1102650221#3 1102650221#4 1102650221#5 1102650221#7 1102650221#8 116810533#0 116810533#2 85426928#0 85426928#1 85426929#0 85426929#2 85426929#4 85426929#5 85426929#6 -966246757 -160591231#6 -160591231#5 -160591231#3 -1090772073"/>
    </vehicle>
    <vehicle id="14" depart="7.00">
        <route edges="58779718#0 107166846#3 58779719#1 37973571#8 765642597 37973566#2 37973566#3 37973566#5 37973566#6 130443630#0 130443630#1 130443630#2 130443630#4 130443630#5 130443630#6 130443630#7 130443630#9 130443630#10 130443630#11 130443630#12 130443630#13 130443630#14 130443630#15 179692877#0 42976406#6 42976406#8 42976406#9 42976406#11 122301988#0 122301988#1 880555131#0 880555131#2 154500688#0 154500688#2 154500688#4 154500688#6 874024523 47289660#0 47289660#1 50338703#0 -873278976#4 372314939#1 372314939#3 1102650222#0 1102650222#1 37044362#0 37044362#1 1102650221#0 1102650221#2 1102650221#3 1102650221#4 1102650221#5 1102650221#7 1102650221#8 116810533#0 116810533#2 85426928#0 85426928#1 85426929#0 85426929#2 85426929#4 85426929#5 85426929#6 -966246757 -160591231#6 -160591231#5 -160591231#3 -1090772073"/>
    </vehicle>
    <vehicle id="15" depart="7.50">
        <route edges="525115165#0 525115165#1 -257357078#7 -257357078#5 -257357078#4 -257357078#1 -257357078#0 -37908666#15 -37908666#14 -37908666#13 -37908666#10 -37908666#8 -37908666#5 -37908666#4 -37908666#1 -37908670#2 -37908670#1 -37908670#0 -80877388#4 -80877388#3 -80877388#2 -37138416#4 -37138416#3 -37138416#2 -80877381#2 -80877381#0 81394199#0 81394199#1 81394199#2 635342379#2 635342379#3 1175468482 713815009 81394196#0 81394196#1 324352208#0 324352208#2 324352208#3 130443629#1 130443629#2 1217859377 677364922#0 677364922#2 405900730#0 405900730#1 405900730#2 490755732#0 490755732#2 405900731#0 405900731#1 405900731#3 405900731#4 405900731#7 37973566#0 37973566#2 37973566#3 37973566#5 37973566#6 130443630#0 130443630#1 130443630#2 130443630#4 130443630#5 130443630#6 130443630#7 130443630#9 130443630#10 130443630#11 130443630#12 130443630#13 130443630#14 130443630#15 179692877#0 42976406#6 42976406#8 42976406#9 42976406#11 122301988#0 122301988#1 880555131#0 880555131#2 154500688#0 154500688#2 154500688#4 154500688#6 874024523 47289660#0 47289660#1 50338703#0 -873278976#4 372314939#1 372314939#3 1102650222#0 1102650222#1 37044362#0 37044362#1 1102650221#0 1102650221#2 1102650221#3 1102650221#4 1102650221#5 1102650221#7 1102650221#8 116810533#0 116810533#2 85426928#0 85426928#1 85426929#0 85426929#2 85426929#4 85426929#5 85426929#6 -966246757 -160591231#6 -160591231#5 -160591231#3 -1090772073"/>
    </vehicle>
    <vehicle id="17" depart="8.50">
        <route edges="125665630#0 125665630#1 635342379#0 635342379#1 635342379#2 635342379#3 1175468482 713815009 81394196#0 81394196#1 324352208#0 324352208#2 324352208#3 130443629#1 130443629#2 1217859377 677364922#0 677364922#2 405900730#0 405900730#1 405900730#2 490755732#0 490755732#2 405900731#0 405900731#1 405900731#3 405900731#4 405900731#7 37973566#0 37973566#2 37973566#3 37973566#5 37973566#6 130443630#0 130443630#1 130443630#2 130443630#4 130443630#5 130443630#6 130443630#7 130443630#9 130443630#10 130443630#11 130443630#12 130443630#13 130443630#14 130443630#15 179692877#0 42976406#6 42976406#8 42976406#9 42976406#11 122301988#0 122301988#1 880555131#0 880555131#2 154500688#0 154500688#2 154500688#4 154500688#6 874024523 47289660#0 47289660#1 50338703#0 -873278976#4 372314939#1 372314939#3 1102650222#0 1102650222#1 37044362#0 37044362#1 1102650221#0 1102650221#2 1102650221#3 1102650221#4 1102650221#5 1102650221#7 1102650221#8 116810533#0 116810533#2 85426928#0 85426928#1 85426929#0 85426929#2 85426929#4 85426929#5 85426929#6 -966246757 -160591231#6 -160591231#5 -160591231#3 -1090772073"/>
    </vehicle>
    <vehicle id="18" depart="9.00">
        <route edges="572714696#0 572714696#1 572714696#2 572714696#4 580542103#5 580542103#6 580542103#8 580542103#9 580542103#10 80339835 37715942#0 37715942#1 134109952#0 37715941 572740881#0 80717991#0 37715944#0 572740885 -135860917#3 -170594819#13 -170594819#12 -170594819#9 -170594819#6 -170594819#3 -170594819#2 -170590353#21 -170590353#17 -170590353#14 -170590353#12 -170590353#9 -170590353#6 -170590353#4 -170590353#2 -170590353#0 -167693273 -351678831#8 -351678831#5 -351678831#4 -351678831#2 -80339839#3 105283539 657572413#0 116810552 116810533#0 116810533#2 85426928#0 85426928#1 85426929#0 85426929#2 85426929#4 85426929#5 85426929#6 -966246757 -160591231#6 -160591231#5 -160591231#3 -1090772073"/>
    </vehicle>
    <vehicle id="19" depart="9.50">
        <route edges="649706898 649706894#5 649706894#1 649706894#2 649706894#3 649706887#0 649706887#1 -106620899#2 -79606555#4 -79606555#3 -106620894#1 -139083324#1 -139083324#0 -23183993#0 106615436#2 106615436#3 106615436#4 107289452#1 107289452#3 107289446#1 193440708 193443933 193443932#0 193443932#1 38320036 48851461#0 674865987#0 674865987#1 674865987#3 469372935#0 469372935#2 674865543#0 674865543#1 674865543#3 132534976#0 132534976#1 132534976#3 132534976#4 132534975#0 132534975#2 28192998#1 111801793#1 111801793#2 111801793#3 111801793#4 111801793#6 111801793#8 220235791#2 112610103 555770500#0 555770500#1 791448849#0 791448849#1 111604725#0 111604725#1 111604727#1 108646533#0 108646533#1 108646533#2 108646533#4 160591229#0 160591231#1 -1090772073"/>
    </vehicle>
    <vehicle id="20" depart="10.00">
        <route edges="38027667#4 -110529939 37837435#2 37837435#3 37837435#4 37837435#6 38027666 130443643#0 130443643#1 130443643#2 130443643#3 130443643#9 130443643#10 130443643#11 130443643#12 130443643#13 130443643#14 130443652 134155185#0 134155185#1 134155185#2 8272362 38027985#0 38027985#1 38027985#2 38027985#3 38027985#4 563843026 170594825#0 170594825#1 95685947#0 95685947#1 95685947#2 563843024#0 563843024#1 563843024#2 563843024#3 563843024#4 874006663#0 874006663#1 170594843 160587553 874006667#0 874006667#1 874006667#2 874006667#3 160584975#1 160584975#2 160584975#4 160584977 160584979 67099050#0 122258522 122258526#0 122258526#1 122258526#2 122258526#4 372314939#1 372314939#3 1102650222#0 1102650222#1 37044362#0 37044362#1 1102650221#0 1102650221#2 1102650221#3 1102650221#4 1102650221#5 1102650221#7 1102650221#8 116810533#0 116810533#2 85426928#0 85426928#1 85426929#0 85426929#2 85426929#4 85426929#5 85426929#6 -966246757 -160591231#6 -160591231#5 -160591231#3 -1090772073"/>
    </vehicle>
    <vehicle id="21" depart="10.50">
        <route edges="-932750555 932750555 149023983 469372933 469372935#0 469372935#2 674865543#0 674865543#1 674865543#3 132534976#0 132534976#1 132534976#3 132534976#4 132534975#0 132534975#2 28192998#1 111801793#1 111801793#2 111801793#3 111801793#4 111801793#6 111801793#8 220235791#2 112610103 555770500#0 555770500#1 791448849#0 791448849#1 111604725#0 111604725#1 111604727#1 108646533#0 108646533#1 108646533#2 108646533#4 160591229#0 160591231#1 -1090772073"/>
    </vehicle>
    <vehicle id="22" depart="11.00">
        <route edges="-173211625#3 -173211625#2 -173211625#0 -487814040#6 -487814040#5 -487814040#2 -487814040#0 173211619#0 173211619#1 43018567 657150065#0 657150065#1 881245049#0 881245049#1 173271714#0 173271714#1 173271714#2 173271714#3 173271714#5 881920740 567161016#0 567161016#2 1171717103#0 1171717103#1 881905854#0 881905854#2 881905855#0 881905855#1 85426929#4 85426929#5 85426929#6 -966246757 -160591231#6 -160591231#5 -160591231#3 -1090772073"/>
    </vehicle>
    <vehicle id="23" depart="11.50">
        <route edges="-257538842#3 -257538842#0 -36876579#1 36876579#1 257538842#0 257538842#1 111801786#0 111514164#0 111514164#3 257171431#0 257171431#1 257171431#2 257171429#0 257171429#2 257171429#3 257171428 111801792 116810574 257171432#0 257171432#1 257171427 257171430#0 257171430#2 257171426#0 257171426#1 257028826#0 257028826#2 116810527 -966246757 -160591231#6 -160591231#5 -160591231#3 -1090772073"/>
    </vehicle>
    <vehicle id="24" depart="12.00">
        <route edges="36903944#13 36903944#14 110530904 37761128#1 1055933902#0 1055933902#2 37837430#0 37837430#1 37837430#3 37837430#4 37837430#5 1219267214#0 37369047#4 37369047#5 37369047#6 37369047#9 37369047#10 37369047#12 562073116#0 562073116#2 562073116#3 562073116#4 490755732#0 490755732#2 405900731#0 405900731#1 405900731#3 405900731#4 405900731#7 37973566#0 37973566#2 37973566#3 37973566#5 37973566#6 130443630#0 130443630#1 130443630#2 130443630#4 130443630#5 130443630#6 130443630#7 130443630#9 130443630#10 130443630#11 130443630#12 130443630#13 130443630#14 130443630#15 179692877#0 42976406#6 42976406#8 42976406#9 42976406#11 122301988#0 122301988#1 880555131#0 880555131#2 154500688#0 154500688#2 154500688#4 154500688#6 874024523 47289660#0 47289660#1 50338703#0 -873278976#4 372314939#1 372314939#3 1102650222#0 1102650222#1 37044362#0 37044362#1 1102650221#0 1102650221#2 1102650221#3 1102650221#4 1102650221#5 1102650221#7 1102650221#8 116810533#0 116810533#2 85426928#0 85426928#1 85426929#0 85426929#2 85426929#4 85426929#5 85426929#6 -966246757 -160591231#6 -160591231#5 -160591231#3 -1090772073"/>
    </vehicle>
    <vehicle id="25" depart="12.50">
        <route edges="1219294903 37772598 149862038#0 149862038#1 149862038#2 149862038#3 149862033#0 149862033#1 149862033#2 149862033#4 149862033#5 757053235#0 1219289415#8 1219289415#9 1219289415#11 1219343200#0 580542103#0 580542103#1 580542103#2 580542103#4 580542103#5 580542103#6 580542103#8 580542103#9 580542103#10 80339835 37715942#0 37715942#1 134109952#0 37715941 572740881#0 80717991#0 37715944#0 572740885 -135860917#3 -170594819#13 -170594819#12 -170594819#9 -170594819#6 -170594819#3 -170594819#2 -170590353#21 -170590353#17 -170590353#14 -170590353#12 -170590353#9 -170590353#6 -170590353#4 -170590353#2 -170590353#0 -167693273 -351678831#8 -351678831#5 -351678831#4 -351678831#2 -80339839#3 105283539 657572413#0 116810552 116810533#0 116810533#2 85426928#0 85426928#1 85426929#0 85426929#2 85426929#4 85426929#5 85426929#6 -966246757 -160591231#6 -160591231#5 -160591231#3 -1090772073"/>
    </vehicle>
    <vehicle id="26" depart="13.00">
        <route edges="107309867#0 107309867#1 43205336#1 43205336#2 43205336#3 43205336#4 43205336#5 43205336#7 149822412#0 149822412#1 1169193226#2 1169193226#0 -992676612 1148433533 992676609#4 992676611 531477510 992676613#1 992676615 47125304 37632248#0 37632248#1 1167094067#7 58760880#1 1130924054#0 551862986 134460813#0 134460813#1 134460813#2 134460813#3 134460813#4 134460813#5 134460813#6 -81563062 81563071#0 81563071#1 133960560#1 133960560#2 874014395 560312459#0 560312459#1 560312459#2 560312459#3 560312459#4 38118392#1 67099050#0 122258522 122258526#0 122258526#1 122258526#2 122258526#4 372314939#1 372314939#3 1102650222#0 1102650222#1 37044362#0 37044362#1 1102650221#0 1102650221#2 1102650221#3 1102650221#4 1102650221#5 1102650221#7 1102650221#8 116810533#0 116810533#2 85426928#0 85426928#1 85426929#0 85426929#2 85426929#4 85426929#5 85426929#6 -966246757 -160591231#6 -160591231#5 -160591231#3 -1090772073"/>
    </vehicle>
    <vehicle id="27" depart="13.50">
        <route edges="37140611#17 876131445 876131444 -351678831#8 -351678831#5 -351678831#4 -351678831#2 -80339839#3 105283539 657572413#0 116810552 116810533#0 116810533#2 85426928#0 85426928#1 85426929#0 85426929#2 85426929#4 85426929#5 85426929#6 -966246757 -160591231#6 -160591231#5 -160591231#3 -1090772073"/>
    </vehicle>
    <vehicle id="28" depart="14.00">
        <route edges="-546554579 196325888#3 196325888#4 132316391#1 -106672552#2 405055927#7 405055927#8 405055927#9 41994312#0 41994312#3 364952114#0 364952114#2 1128418408 110904625#0 110904625#1 110904625#3 110904683#1 108646532#0 110904643#0 110904643#1 110904643#2 107289446#1 193440708 193443933 193443932#0 193443932#1 38320036 48851461#0 674865987#0 674865987#1 674865987#3 469372935#0 469372935#2 674865543#0 674865543#1 674865543#3 132534976#0 132534976#1 132534976#3 132534976#4 132534975#0 132534975#2 28192998#1 111801793#1 111801793#2 111801793#3 111801793#4 111801793#6 111801793#8 220235791#2 112610103 555770500#0 555770500#1 791448849#0 791448849#1 111604725#0 111604725#1 111604727#1 108646533#0 108646533#1 108646533#2 108646533#4 160591229#0 160591231#1 -1090772073"/>
    </vehicle>
    <vehicle id="29" depart="14.50">
        <route edges="-447701732 -379511956#11 -379511956#10 -379511956#8 -379511956#7 -379511956#5 -379511956#3 -379511956#0 379511957#0 379511957#1 881905852#0 881905852#1 881905852#2 881905852#4 567161016#0 567161016#2 1171717103#0 1171717103#1 881905854#0 881905854#2 881905855#0 881905855#1 85426929#4 85426929#5 85426929#6 -966246757 -160591231#6 -160591231#5 -160591231#3 -1090772073"/>
    </vehicle>
    <vehicle id="30" depart="15.00">
        <route edges="93918016#0 -93918016#0 -765543785#1 -1136709093#4 -1136709093#3 -1136709093#2 110904638#1 110904638#2 110904638#3 110904571#0 110904571#1 40745989 40745991 40745990#0 40745990#2 40745990#4 1136690244 1136690239 108646522#0 108646522#1 108646532#0 110904643#0 110904643#1 110904643#2 107289446#1 193440708 193443933 193443932#0 193443932#1 38320036 48851461#0 674865987#0 674865987#1 674865987#3 469372935#0 469372935#2 674865543#0 674865543#1 674865543#3 132534976#0 132534976#1 132534976#3 132534976#4 132534975#0 132534975#2 28192998#1 111801793#1 111801793#2 111801793#3 111801793#4 111801793#6 111801793#8 220235791#2 112610103 555770500#0 555770500#1 791448849#0 791448849#1 111604725#0 111604725#1 111604727#1 108646533#0 108646533#1 108646533#2 108646533#4 160591229#0 160591231#1 -1090772073"/>
    </vehicle>
    <vehicle id="31" depart="15.50">
        <route edges="257027155#0 256806943 257027156#0 -257027156#1 -256806943 -257027155#1 -160587544#2 -160587544#1 -160587544#0 1116922616#1 1116922616#2 49047582#0 49047582#2 697584767 160591231#1 -1090772073"/>
    </vehicle>
    <vehicle id="32" depart="16.00">
        <route edges="58413965#5 -58413965#5 -58413965#4 110904643#2 107289446#1 193440708 193443933 193443932#0 193443932#1 38320036 48851461#0 674865987#0 674865987#1 674865987#3 469372935#0 469372935#2 674865543#0 674865543#1 674865543#3 132534976#0 132534976#1 132534976#3 132534976#4 132534975#0 132534975#2 28192998#1 111801793#1 111801793#2 111801793#3 111801793#4 111801793#6 111801793#8 220235791#2 112610103 555770500#0 555770500#1 791448849#0 791448849#1 111604725#0 111604725#1 111604727#1 108646533#0 108646533#1 108646533#2 108646533#4 160591229#0 160591231#1 -1090772073"/>
    </vehicle>
    <vehicle id="33" depart="16.50">
        <route edges="-93918572#6 -93918572#5 -93918572#4 -93918572#3 -93918572#2 110904670#8 110904622#1 110904638#1 110904638#2 110904638#3 110904571#0 110904571#1 40745989 40745991 40745990#0 40745990#2 40745990#4 1136690244 1136690239 108646522#0 108646522#1 108646532#0 110904643#0 110904643#1 110904643#2 107289446#1 193440708 193443933 193443932#0 193443932#1 38320036 48851461#0 674865987#0 674865987#1 674865987#3 469372935#0 469372935#2 674865543#0 674865543#1 674865543#3 132534976#0 132534976#1 132534976#3 132534976#4 132534975#0 132534975#2 28192998#1 111801793#1 111801793#2 111801793#3 111801793#4 111801793#6 111801793#8 220235791#2 112610103 555770500#0 555770500#1 791448849#0 791448849#1 111604725#0 111604725#1 111604727#1 108646533#0 108646533#1 108646533#2 108646533#4 160591229#0 160591231#1 -1090772073"/>
    </vehicle>
    <vehicle id="34" depart="17.00">
        <route edges="111995448#0 111995448#1 111995448#2 111995448#3 111995448#4 111995448#5 111995448#6 130443657 -134640698#6 -134640698#3 -134640698#2 -35778286 43837961#0 43837961#1 43837961#3 43837961#4 873277966 551875153 873277964#0 873277964#2 873277964#3 873277965#0 873277965#1 767390779#1 767390779#2 767390779#3 767390779#5 767390779#7 767390779#8 767390779#9 767390779#10 873277963 80337280#3 80337280#4 459789838#3 459789838#4 459789838#5 372314939#1 372314939#3 1102650222#0 1102650222#1 37044362#0 37044362#1 1102650221#0 1102650221#2 1102650221#3 1102650221#4 1102650221#5 1102650221#7 1102650221#8 116810533#0 116810533#2 85426928#0 85426928#1 85426929#0 85426929#2 85426929#4 85426929#5 85426929#6 -966246757 -160591231#6 -160591231#5 -160591231#3 -1090772073"/>
    </vehicle>
    <vehicle id="35" depart="17.50">
        <route edges="-818129570 58777842 58777841#3 31860136#11 31860136#12 130443653#5 130443653#6 37973568#0 37973568#1 37973568#2 37973568#4 37973568#6 37973568#7 37973568#8 37973568#10 37973568#11 130443630#14 130443630#15 179692877#0 42976406#6 42976406#8 42976406#9 42976406#11 122301988#0 122301988#1 880555131#0 880555131#2 154500688#0 154500688#2 154500688#4 154500688#6 874024523 47289660#0 47289660#1 50338703#0 -873278976#4 372314939#1 372314939#3 1102650222#0 1102650222#1 37044362#0 37044362#1 1102650221#0 1102650221#2 1102650221#3 1102650221#4 1102650221#5 1102650221#7 1102650221#8 116810533#0 116810533#2 85426928#0 85426928#1 85426929#0 85426929#2 85426929#4 85426929#5 85426929#6 -966246757 -160591231#6 -160591231#5 -160591231#3 -1090772073"/>
    </vehicle>
    <vehicle id="36" depart="18.00">
        <route edges="670451796#1 670451796#2 134460813#6 -81563062 81563071#0 81563071#1 133960560#1 133960560#2 874014395 560312459#0 560312459#1 560312459#2 560312459#3 560312459#4 38118392#1 67099050#0 122258522 122258526#0 122258526#1 122258526#2 122258526#4 372314939#1 372314939#3 1102650222#0 1102650222#1 37044362#0 37044362#1 1102650221#0 1102650221#2 1102650221#3 1102650221#4 1102650221#5 1102650221#7 1102650221#8 116810533#0 116810533#2 85426928#0 85426928#1 85426929#0 85426929#2 85426929#4 85426929#5 85426929#6 -966246757 -160591231#6 -160591231#5 -160591231#3 -1090772073"/>
    </vehicle>
    <vehicle id="37" depart="18.50">
        <route edges="37290625#18 37290625#19 149029630 267388105#0 267388105#1 1149100961#3 235831762#0 235831762#1 -36889333 -36864735#1 -36864735#0 8658363#0 8658363#1 8658363#2 8658363#3 315873915 315873916#0 315873916#1 315873916#4 315873916#5 561619118#0 561619118#1 1138121142 1138121143 116810554#0 116810554#2 116810554#3 116810554#4 116810554#5 116810554#6 116810554#9 502438902#5 502438902#6 502438902#8 966246759 -160591231#6 -160591231#5 -160591231#3 -1090772073"/>
    </vehicle>
    <vehicle id="38" depart="19.00">
        <route edges="80262371#1 323978916#6 1167094067#0 1167094067#1 1167094067#2 1167094067#3 1167094067#5 828546476#3 37632249 130443671 77809878#0 77809878#1 77809878#2 130443647#2 130443647#3 130443647#4 130443647#5 130443647#6 130443647#7 130443647#8 666707220#0 666707220#1 666707220#2 172399117 160587539 77077234#0 77077234#1 77077234#2 77077234#3 77077234#4 666707215#0 666707215#1 874006665 160587553 874006667#0 874006667#1 874006667#2 874006667#3 160584975#1 160584975#2 160584975#4 160584977 160584979 67099050#0 122258522 122258526#0 122258526#1 122258526#2 122258526#4 372314939#1 372314939#3 1102650222#0 1102650222#1 37044362#0 37044362#1 1102650221#0 1102650221#2 1102650221#3 1102650221#4 1102650221#5 1102650221#7 1102650221#8 116810533#0 116810533#2 85426928#0 85426928#1 85426929#0 85426929#2 85426929#4 85426929#5 85426929#6 -966246757 -160591231#6 -160591231#5 -160591231#3 -1090772073"/>
    </vehicle>
    <vehicle id="39" depart="19.50">
        <route edges="107161641#1 309378440#2 309378440#3 309378440#4 247782630 -424269158#1 666410866#0 666410866#2 584766946 172498376 172498377 584766944#0 584766944#3 672510293#0 672510293#2 672510293#3 172498378#0 873278977 80337280#0 80337280#2 80337280#3 80337280#4 459789838#3 459789838#4 459789838#5 372314939#1 372314939#3 1102650222#0 1102650222#1 37044362#0 37044362#1 1102650221#0 1102650221#2 1102650221#3 1102650221#4 1102650221#5 1102650221#7 1102650221#8 116810533#0 116810533#2 85426928#0 85426928#1 85426929#0 85426929#2 85426929#4 85426929#5 85426929#6 -966246757 -160591231#6 -160591231#5 -160591231#3 -1090772073"/>
    </vehicle>
    <vehicle id="40" depart="20.00">