<?xml version="1.0" encoding="UTF-8"?>

<!-- generated on 2023-10-02 09:30:50 by Eclipse SUMO duarouter Version 1.12.0
<configuration xmlns:xsi="http://www.w3.org/2001/XMLSchema-instance" xsi:noNamespaceSchemaLocation="http://sumo.dlr.de/xsd/duarouterConfiguration.xsd">

    <input>
        <net-file value="turin.net.xml"/>
        <route-files value="turin.trips.xml"/>
    </input>

    <output>
        <output-file value="turin.rou.xml"/>
        <alternatives-output value="turin.rou.alt.xml"/>
    </output>

    <report>
        <ignore-errors value="true"/>
    </report>

</configuration>
-->

<routes xmlns:xsi="http://www.w3.org/2001/XMLSchema-instance" xsi:noNamespaceSchemaLocation="http://sumo.dlr.de/xsd/routes_file.xsd">
    <vehicle id="0" depart="0.00">
        <route edges="346319159 344744211#0 342452096#1 27782011#5 42937296 80376790#0 80376790#1 80376790#2 80376790#3 80376790#6 80376790#7 80376790#8 80376790#9 80376790#10 80376790#12 130443659#3 130443659#4 -23182358#5 -23182358#3 -23182358#2 466900336#1 466900336#2 466900336#5 466900336#6 23315111#0 23315111#1 -405900732#2 -405900732#1 -405900732#0 108329426#1 108329426#2 69931595#0 69931595#1 69931595#2 69931595#3 69931595#4 69931595#5 290005765#1 290005765#2 290005765#4 290005765#5 130443630#0 130443630#1 130443630#2 130443630#4 130443630#5 130443630#6 130443630#7 130443630#9 130443630#10 130443630#11 130443630#12 130443630#13 130443630#14 130443630#15 179692877#0 42976406#6 42976406#8 42976406#9 42976406#11 122301988#0 122301988#1 880555131#0 880555131#2 154500688#0 154500688#2 154500688#4 154500688#6 874024523 47289660#0 47289660#1 50338703#0 -873278976#4 372314939#1 372314939#3 1102650222#0 1102650222#1 -1102649877#3"/>
    </vehicle>
    <vehicle id="1" depart="0.50">
        <route edges="105600448#0 105600448#1 44468712#22 44468712#24 44468712#25 44468712#27 44468712#28 44468712#29 44468712#30 44468712#31 44468712#32 44468712#33 44468712#35 1136460114 1135142887#0 257800507#0 257800507#1 257800506#0 257800506#2 257800506#4 111604730#0 111604730#4 257685405#0 257685398#0 257685398#1 257685399 257685418#2 257685411 257685402 160601725 257685415#0 257685415#1 257685408 257538840#0 257538840#2 257538839#0 257538839#1 257538839#4 257538838#0 257538838#1 257538841#0 257538842#0 257538842#1 111801786#0 111514164#0 111514164#3 257171431#0 257171431#1 257171431#2 257171429#0 257171429#2 257171429#3 257171428 111801792 116810574 257171432#0 257171432#1 257171427 257171430#0 257171430#2 257171426#0 257171426#1 257028826#0 257028826#2 116810527 37886525 257027154 257027153#1 257027155#0 257027156#0 257027156#1 256806942#0 257025801#0 257025801#1 257025802#1 379511956#0 379511956#1 379511956#5 379511956#6 379511956#8 379511956#9 379511956#11 447701732 80451876#0 80451876#1 80451876#2 80451876#3 80451876#4 80451876#6 80451876#7 80451876#8 80451876#9 80451876#10 -373249645#2 -373249645#1 -373249644#7 -373249644#5 -373249644#2 -373249644#0 -881916069#1 -881916069#0 8272429#0 -8272429#0"/>
    </vehicle>
    <vehicle id="2" depart="1.00">
        <route edges="397537027#4 397537027#5 1118298866#0 134009730#0 134009730#2 134009730#3 134009730#4 134009730#5 134009730#6 134009730#7 134009730#8 134009730#9 134009730#11 1149702456#0 1149702456#2 1149702460#0 551896092#14 551896092#15 551897069 551896093#0 551896093#2 559747870#0 559747870#1 559747870#2 559747870#3 559747870#4 559747870#6 559747870#7 559747870#8 551875154#0 551875154#1 551875154#2 551875154#3 551875154#5 551852673#1 130443648#0 130443648#1 130443648#3 383740584 49304715#0 49304715#1 134155196#0 134155196#1 134155196#2 1055973952#0 1055973952#1 1055973952#2 37730532#8 37730532#9"/>
    </vehicle>
    <vehicle id="3" depart="1.50">
        <route edges="714022408#0 -38314397#1 135856921#0 135856921#1 133259888 133259890 133259891 108637182#0 108637182#1 -112610156#6 -112610156#5 -112610156#4 -112610156#3 -112610156#2 -112610100 -112610108 -149146765#18 -149146765#15 -149146765#14 -149146765#11 -149146765#8 -149146765#5 -149146765#4 -149146765#2 -149146765#1 -149146789#13 -149146789#11 -149146789#10 -149146789#9 -149146789#7 -149146789#5 -149146789#3 -149146789#2 111604727#1 132666804 83744765#0 83744765#2 83744765#3 111604728#0 132316387#0 132316387#1 149116229 1170368762 116171843#1 116171843#2 129099206#1 129099206#2 129099206#4 129099206#6 375045488#0 375045488#2 375045488#4 375045488#5 375045488#8 375045488#9 375045488#10 375045488#11 375045488#13 4546578#0 4546578#1 4546578#2 4546578#3 4546578#4 4546578#5 932750556#1 932750556#3 932750556#4 932750556#5 932750556#6 932750549#0 932750549#1 453962111#1 193440709#0 193440709#1 193440709#2 193440712#1 193440712#2 193440711#0 193440711#2 193440710#0 193440710#1 193440710#2 -106615436#6 -106615436#3 -106615436#2 -106615436#0 139083324#0 139083324#1 139083324#2 139083324#3 139083324#4 139083324#5 135860932#1 135860932#2 135860932#3 135860932#4 135860932#5 135860932#6 135860932#7 135860932#8 135860932#10 135860932#11 135860932#12 135860932#13 135860932#14 332722107#0 332722107#1 332722107#3 332722107#4 -257800506#4 -257800506#3 -257800506#1 -257800507#2 -257800507#0 -134124985 -257800508#2 -257800508#1 -80046393 -44580449 42045174#0 42045174#2 111604723 42045172#0 42045172#2 42045172#3 42045172#4 111593634#1 111593634#2 26982395#0 26982395#1 26982395#2 26982395#3 26982395#4 26982395#5 26982395#6 26982395#8 112610160#0 112610160#1 112610160#3 132516314 132516317#0 132516317#2 112610102#0 112610102#2 112610102#3 112610102#5 26982326 112950824 112950876 112950858 49723042#0 49723042#2 160667646#1 -160667646#1"/>
    </vehicle>
    <vehicle id="4" depart="2.00">
        <route edges="133855825#2 133855807#0 133855807#2 133855808#0 133855808#1 133855808#2 127949010 38308628 328929598#1 38308629 37228342#0 37228342#1 37228342#2 37228342#3 37228342#4 37228342#6 -127949012#4 -127949012#1 -111549917#4 -111549917#3 -111549917#0 572744601#1 111549929#0 111549929#1 111549929#2 111549929#3 111549929#4 111549929#5 60750194#4 572784463#0 572784463#1 572784464#0 332306557#1 332306557#2 332306557#3 332306557#4 332306557#5 -1117205703#17 -1117205703#16 -1117205703#14 -1117205703#13 -1117205703#10"/>
    </vehicle>
    <vehicle id="5" depart="2.50">
        <route edges="-727582095 -37761134#6 -37761134#5 -37761134#4 -37761134#2 -251662002#0 -220847823#1 -220847823#0 -22956132#1 22956140 38249809 646315028 -220847818 -38306581#7 -38306581#6 -38306581#5 -38306581#4 -38306581#3 -38306581#2 -38306581#1 -38306581#0 -134249211 -112610152#5 -112610152#4 -112610152#3 -112610152#0 -38235045#1 -378382464#4 -378382464#3 -149190777#4 -149190777#1 -135860931#14 -135860931#13 -135860931#12 -135860931#11 -135860931#9 -135860931#8 -135860931#6 -135860931#5 -135860931#4 -135860931#3 -135860931#2 -135860931#0 -1171800325#2 -1171800325#0 -277848731#2 -277848731#1 -81632518#4 -81632518#3 -81632518#2 -81632513#1 -81632513#0 -149146783#20 -149146783#18 -149146783#17 -149146783#16 -149146783#15 -149146783#14 -149146783#13 149146765#11 149146765#12 149146765#15 149146765#16 50339385#0 50339385#1 50339385#4 50339385#5 50339385#6 50339385#9 50339385#10 50339385#11 50339385#12 50339385#13 50339385#14 50339385#15 50339385#16 50339385#18 686356400 49024292#0 49024292#1 49024292#2 49024292#3-AddedOnRampEdge 49024292#3 49024292#4 112610094 -82207172#1 -82207172#0 112610147#2 112610147#3 112610147#4 50373643#0 50373643#1 -112610098 -134756577#2 -134756577#0 -111801780#3 -111801780#1 -111801780#0 -768645864#6 -768645864#5 -768645864#4 -768645864#3 -768645864#2 -768645864#1 -768645864#0 -23683989#22 -23683989#21 -23683989#20 -23683989#19 -23683989#16 101515812#0 101515812#1 768644947 191142224"/>
    </vehicle>
    <vehicle id="6" depart="3.00">
        <route edges="-1123085977#1 862447329#5 151167659#0 151167659#1 151167659#2 240482839 876124552#0 876124552#1 173528288#0 173528288#1 173528288#2 877288371#0 877288371#2 1115285031 122301994#0 122301994#1 122301994#3 122301994#4 37638426#0 -179692877#1 -130443630#16 -130443630#14 -130443630#13 -130443630#12 -130443630#11 -130443630#10 -130443630#9 -130443630#8 -130443630#6 -130443630#5 -130443630#4 -130443630#3 -130443630#1 -130443630#0 -552708120#6 -552708120#5 -552708120#4 -552708120#2 -552708120#1 -552708120#0 -107028581#3 -107028581#2 31860098#3 31860098#4 130443653#0 130443653#1 130443653#2 -863937087#17 -863937087#16 -863937087#15 -863937087#14 -863937087#13 -863937087#11 -863937087#8 -863937087#7 -863937087#4 -863937087#2 -863937087#1 -134155188#11 -134155188#9 -134155188#8 -134155188#7 -134155188#6 -134155188#5 -134155188#3 -134155188#0 -107426163#3 -107426163#2 -107426163#1 -107426172#3 -107426172#2 -107426172#1 -107426172#0 -107426139 -107426154#1 -107426154#0 -107426174 -107426186#3 -107426186#0 -107426181#6 -107426181#5 -107426181#4 -107426181#1 -107426181#0 -107426151 -107426158#1 -107426158#0 -107426184 -107426149#1 -107426149#0 -532288764#5 -532288764#3 -532288764#0 4549612#0 4549612#1 4549612#2 4549612#3 59712738#0 -59712738#0"/>
    </vehicle>
    <vehicle id="7" depart="3.50">
        <route edges="36843404#1 125665633#0 125665633#2 134417905#0 134417905#1 134417905#2 125665631#0 125665631#1 125665631#2 713815009 643117087 81632511 130443660#0 130443660#1 324738168#0 324738168#1 130443659#0 130443659#1 130443659#2 130443659#3 130443659#4 130443659#5 130443659#6 130443659#7 23182379#0 23182379#1 23182379#2 23182379#3 23182379#4"/>
    </vehicle>
    <vehicle id="8" depart="4.00">
        <route edges="-756859271#0 -756859272 -22897703 -22897701 81547761#1 81547761#2 -890208640 80451876#0 80451876#1 80451876#2 80451876#3 80451876#4 80451876#6 80451876#7 80451876#8 80451876#9 80451876#10 -373249645#2 -373249645#1 -373249644#7 28107362#13 28107362#14"/>
    </vehicle>
    <vehicle id="9" depart="4.50">
        <route edges="502438902#2 502438902#3 502438902#4 502438902#5 502438902#6 502438902#8 966246759 -160591231#6 -160591231#5 -160591231#3 -160591231#2 22898325 23088766#0 23088766#2 23088766#3 23088766#4 23088766#5 23088766#6 111604728#0 132316387#0 132316387#1 149116229 1170368762 116171843#1 116171843#2 129099206#1 129099206#2 129099206#4 129099206#6 375045488#0 375045488#2 375045488#4 375045488#5 375045488#8 375045488#9 375045488#10 375045488#11 375045488#13 4546578#0 4546578#1 4546578#2 4546578#3 4546578#4 4546578#5 932750556#1 932750556#3 932750556#4 932750556#5 932750556#6 932750549#0 932750549#1 453962111#1 193440709#0 193440709#1 193440709#2 193440712#1 193440712#2 193440711#0 193440711#2 193440710#0 193440710#1 -104675798#1"/>
    </vehicle>
    <vehicle id="10" depart="5.00">
        <route edges="49304544 -49304544 37871791#0 37871791#1 37871791#3 43976946#15 43976946#16 43976946#17 134640686#6 134640686#7 134640686#0 134640686#1 23262203#0 23262203#1 23262203#2 23262203#5 23262203#11 23262203#12 23262203#13 134417913#1 134417913#2 134417913#3 134417913#4 134417913#6 134417913#7 134417913#8 1055933901#0 1055933901#1 1055933901#2 37837430#0 37837430#1 37837430#3 37837430#4 37837430#5 133868177#0 133868177#1 133868177#2 133868177#3 133868177#4 133868177#5 133868177#6 793496327#0 793496327#1 793496328 37837435#0 37837435#1 110529939 38027665#0 38027665#1"/>
    </vehicle>
    <vehicle id="11" depart="5.50">
        <route edges="111995476#1 111995476#2 111995476#3 870730975 111995421#0 26384338#1 870730977 870730978#0 870730978#1 870730978#2 870730978#4 111760313#1 111760313#2 966716884#0 -130443665#9 -130443665#8 -130443665#6 -130443665#5 -130443665#4 -130443665#3 -130443665#0 -39977258 -134640698#6 -134640698#3 -134640698#2 -35778286 35778285#0 35778285#3 35778285#4 37290626#0 37290626#2 1130924054#0 551852673#1 130443671 77809878#0 77809878#1 77809878#2 38027983#2 38027983#5 38027983#6 38027983#7 38027983#8 38027983#9 38027983#10 38027983#11 -38027983#11"/>
    </vehicle>
    <vehicle id="12" depart="6.00">
        <route edges="862454065#1 37640546#8 37640546#9 37640546#10 37640546#11 876531526#0 876531526#1 37772595#0 37772595#1 -24573947#2 -149422193#1 -149422193#0 -149422210#3 -480987089 -149422199#0 873157351#3 873157351#4 23262356#0 23262356#2 23262356#3 862447329#5 151167659#0 151167659#1 151167659#2 240482839 876124552#0 876124552#1 173528288#0 173528288#1 173528288#2 877288371#0 877288371#2 1115285031 94373194#0 122301988#0 122301988#1 880136759#0 880136759#1 880136759#2 43633786#1 43633786#5 43633786#6 43633786#7 43633786#8 874006659#0 874006659#1 154500714 154500709 172498396 874006664#0 874006664#1 38027981#0 38027981#1 666707218#0 666707218#1 666707218#3 173211616 172399118 77077231#0 77077231#1 666707219#0 666707219#1 666707219#2 666707219#3 666707219#4 666707219#5 666707219#7 666707219#9 666707219#11 666707219#12 666707219#13 551852699#0 551852699#1 551852699#2 551852699#4 -828546476#3 -828546476#1 -47125304 992676614 992676613#3 992676613#4 992676613#5 -531477510 992676610 992676609#1 992676609#2 1148433532"/>
    </vehicle>
    <vehicle id="13" depart="6.50">
        <route edges="-190985111#2 421109897#10 421109897#11 149190769#0 149190769#1 149190769#3 149190769#4 -139070454#1 -108646524#10 -108646524#8 -108646524#6 -108646524#5 -108646524#3 -108646524#2 -756859271#0 -756859272 -22897703 -22897701 81547761#1 81547761#2 -890208640 -881245058#1 -881245058#0 -755147086#10 -755147086#9 -755147086#8 -755147086#5 -755147086#3 -755147086#2 -881245057#3 -881245057#0 149868584#1 149868584#2 149868584#3 149868584#4 149868584#8 369511961#0 369511961#3 369511961#4 369511961#8 369511961#11 369511961#12 369511961#15 369511961#16 369511961#19 369511961#20 447699318#0 447699318#1 447699318#4 447699318#5 447699318#8 313087693 313087692 659342830 37973572#0 37973572#1 37973572#4 -130443630#11 -130443630#10 -130443630#9 -130443630#8 -130443630#6 -130443630#5 -130443630#4 -130443630#3 -130443630#1 -130443630#0 -552708120#6 -552708120#5 -552708120#4 -552708120#2 -552708120#1 -552708120#0 -107028581#3 -107028581#2 31860098#3 31860098#4 130443653#0 130443653#1 130443653#2 -863937087#17 -863937087#16 -863937087#15 -863937087#14 -863937087#13 -863937087#11 -863937087#8 -863937087#7 -863937087#4 -863937087#2 -863937087#1 -134155188#11 -134155188#9 -134155188#8 -134155188#7 -134155188#6 -134155188#5 -134155188#3 -134155188#0 -107426163#3 -107426163#2 -107426163#1 -107426172#3 -107426172#2 -107426172#1 -107426172#0 -107426139 -107426154#1 -107426154#0 -107426174 -107426186#3 -107426186#0 -107426181#6 -107426181#5 -107426181#4 -107426181#1 -107426181#0 -107426151 -107426158#1 -107426158#0 -107426184 -107426149#1 -107426149#0 -532288764#5 -532288764#3 -532288764#0 4549612#0 4549612#1 4549612#2 4549612#3 59712738#0 59712738#1 59712738#2 59712738#3 59712738#4 43205336#3 43205336#4 149822406 -191108737#0"/>
    </vehicle>
    <vehicle id="14" depart="7.00">
        <route edges="584766945#0 584766945#2 172498377 584766944#0 584766944#3 672510294#0 672510293#0 672510293#2 172498378 80337280#0 80337280#2 80337280#3 80337280#4 459789838#3 459789838#4 459789838#5 873278976#1 50338704#0 50338704#2 672547557#0 672547557#1 154881336 37856842 154881337 31768459#0 31768459#2 31768459#4 31768459#5 154881334#0 47092240#0 47092240#1 47092240#2 757788071#1 757788074#0 757788074#2 876131444 876131440 167693277#0 167693277#1 167693277#4 657150065#0 657150065#1 881245049#0 881245049#1 173271714#0 173271714#1 173271714#2 173271714#3 173271714#5 881920740 22908661#0 22908661#1 22908661#2 170594817 1027290193#0 1027290193#1 257025800 1034770922#0 1034770922#1 1027290194#0 1027290194#1 1027290194#2 102675058#0 102675058#2 102675066#0 102675066#1 102675066#2 149146765#1 149146765#2 149146765#3 149146765#5 149146765#6 149146783#12 149146783#14 149146783#15 149146783#16 149146783#17 149146783#18 149146783#19 134543560#1 81632513#1 81632518#1 81632518#3 81632518#4 277848731#0 277848731#2 1171800325#0 1171800325#2 135860931#0 135860931#1 135860931#3 135860931#4 1180990564#2 1180990564#3 112610139#21 112610139#22 112610139#23 112610139#24 112610139#26 112610139#27 302520057#0 302520057#1 302520057#2 302520057#3 302520057#4"/>
    </vehicle>
    <vehicle id="15" depart="7.50">
        <route edges="49723042#4 49723042#5 49723042#6 49723042#7 372173607 26982298#5 26982298#6 26982298#8 733309422#1 -265600014#2 -265600014#1 49722865 43273620#6-AddedOnRampEdge 43273620#6 43273620#8 112950846#0 112950846#1 112950825 112950860#0 112950860#1 26982411#0 26982411#2 26982411#4 26982411#5 26982411#6 112568308#0 112568308#2 112568308#3 112568308#4 112568308#6 82215683#0 82215683#1 82215683#4 82215683#6 82215683#7 82215683#8 82215683#9 163979752 1156946007 163979736 163979741#0 163979750 -40735739#5 -40735739#4 -40735739#3 -40735739#2 116820408 288913621#1 288913621#2 132316389#0 132316389#1 405055928#0 405055928#2 405055927#1 405055927#2"/>
    </vehicle>
    <vehicle id="16" depart="8.00">
        <route edges="220847826#4 220847826#5 1097325369 23015843 641923352#1 481556276#0 101272432#2 740946653#0 740946653#1 740946653#2 740946653#3 741000723#0 -572748503#4 -572748503#1 -572748503#0 106904859#0 106904859#1 -135860931#14 -135860931#13 -135860931#12 -135860931#11 -135860931#9 -135860931#8 -135860931#6 -135860931#5 -135860931#4 -135860931#3 -135860931#2 -135860931#0 -1171800325#2 -1171800325#0 -277848731#2 -277848731#1 -81632518#4 -81632518#3 -81632518#2 -22879323#8 -22879323#6 -22879323#5 -22879323#4 -22879323#2 -756859271#0 -756859272 -22897703 -22897701 81547761#1 81547761#2 -890208640 -881245058#1 -881245058#0 -755147086#10 -755147086#9 -755147086#8 -755147086#5 -755147086#3 -755147086#2 -881245057#3 -881245057#0 881245057#0"/>
    </vehicle>
    <vehicle id="17" depart="8.50">
        <route edges="121952553#6 121952553#7 121952564#0 121952564#1 121952564#3 121952564#4 121952564#6 287836711#0 287836711#1 287836711#2 121952560#0 121952560#1 121952560#3 483629577#1 483629577#2 483629577#3 483629577#5 483629577#6 677704593#5 368807876#0 368807876#1 368807876#2 368807876#3 368807876#5 368807876#7 368807876#11 368807876#12 368807876#16 368807876#17 368807876#18 -257357075#17 -257357075#14 -257357075#13 -257357075#12 -257357075#11 -257357075#10 -257357075#9 -257357075#7 -257357075#6 -257357075#5 -257357075#4 -257357075#3 -257357075#2 -257357075#0 -125667772#4 -125667772#3 -125667772#2 -125667772#0 125667775 134640686#1 134640686#2 134640686#3 134640686#4 37468444#0 37468444#1 37468444#2 37468444#4 37468444#5 37468444#6 37468444#7 37468444#8 37468444#9 37468444#10 37468444#11 37468444#12 37468444#14 170563873#7 170563868 170397665#0 170397665#1 170397665#2 127736994#0 127736994#1 39671525#0 39671525#3 1181812801#0 1181812801#1 127736995#0 1067810267 22898196 209335798 1055419159 -376262957#2 -376262957#0 -1055422268#5 -1055422268#4 -1055422268#3 -1055422268#0 -22898293#4 -22898293#3 -22898293#0 -499338729#0 499338729#0 839332424#0 839332424#1 23575327#0 23575327#1"/>
    </vehicle>
    <vehicle id="18" depart="9.00">
        <route edges="572328742#2 572328742#3 572328742#5 572328743 37140690 572328744#0 572328744#2 572328744#4 1055423528#0 1055423528#1 369511399#0 369511399#4 369511399#5 369511399#6 369511399#9 173271715 487814040#0 487814040#1 487814040#4 487814040#6 173211625#0 173211625#1 173211625#3 756569653#0 756569653#2 756569653#3 756569653#5 756569653#7 881905845#1 881905844 877851359#0 877851359#1 43012901 881905842#0 881905842#1 -356857809#6 -356857809#5 -356857809#3 -356857809#2 -356857809#0 -356857808#7 -356857808#5 -356857808#4 -356857808#2 -356857808#0 8272429#0 8272429#1 149864368#3 149864368#4 1055878930 149864358#0 149864358#1 328929617#2"/>
    </vehicle>
    <vehicle id="19" depart="9.50">
        <route edges="607397487#0 607397487#1 607397490#0 607397490#1 607397490#2 607397490#3 -139070454#7 -139070454#1 -108646524#10 -108646524#8 -108646524#6 -108646524#5 -108646524#3 -108646524#2 -108722025#9 -108722025#8 -108722025#7 -108722025#6 -108722025#4 -108722025#2 -108722025#1 -149146787#13 -149146787#10 -149146787#9 -149146787#7 -149146787#5 -149146787#4 -149146787#2 -149146787#0 102675064#0 102675064#1 102675064#2 102675064#3 102675064#4 -22908653#0 -1027290194#1 -1027290194#0 -1034770922#1 -1034770922#0 -257025800 -1027290193#2 -1027290193#0 -170594817 -22908661#2 -22908661#1 -22908661#0 -881920740 1195859684#0 1195859684#1 38228094#0 38228094#1 38228094#3 862454068#0 -369511399#2 -8272420#5 -8272420#4 -8272420#1 105283536#0 105283536#2 37290628#0 37290628#1 37290628#2 37290628#4 697584769#0 697584769#1 40271561#0 40271561#1 1102650223#0 1102650223#1 -459789838#7 103504284#0 103504284#1 -122258528#0 37290627#1 874014393 560312460#1 133960558#1 133960558#2 81563062 81563075#0 81563075#1 81563075#2 81563075#4 874024522 1130924083 551875156#0 551875156#1 -39977280#4 -39977280#3 -39977280#2 -39977280#1 -39977280#0 -672449392#3 -672449392#2 -672449392#1 -672449392#0 -39977276#2 -39977276#0 -111995460 -39977272#1 39977270 111995477 39977271#0 39977271#1 -154296739 644332361 26620384#0"/>
    </vehicle>
    <vehicle id="20" depart="10.00">
        <route edges="37886525 257027154 257027153#1 257027155#0 257027156#0 257027156#1 256806942#0 170594817 -170594817 -22908661#2 -22908661#1 -22908661#0 170594828#0 170594828#1 170594828#2 170594828#3 170594828#4 170594828#5 170594828#7 881245048#0 881245048#1 173211619#0 173211619#1 657150061#0 657150061#1 657150061#4 876131439 170590353#0 170590353#1 170590353#4 170590353#5 151167657#1 862447329#0 862447329#2 862447329#3 862447329#5 151167659#0 151167659#1 151167659#2 240482839 876124552#0 876124552#1 173528288#0 173528288#1 173528288#2 877288371#0 877288371#2 1115285031 122301994#0 122301994#1 122301994#3 122301994#4 37638426#0 -179692877#1 -130443630#16 -130443630#14 -130443630#13 -130443630#12 -130443630#11 -130443630#10 -130443630#9 -130443630#8 -130443630#6 -130443630#5 -130443630#4 -130443630#3 -130443630#1 -130443630#0 -552708120#6 -552708120#5 -552708120#4 -552708120#2 -552708120#1 -552708120#0 -107028581#3 -107028581#2 31860098#3 31860098#4 130443653#0 130443653#1 130443653#2 -863937087#17 -863937087#16 -863937087#15 -863937087#14 -863937087#13 -863937087#11 -863937087#8 -863937087#7 -863937087#4 -863937087#2 -863937087#1 -134155188#11 -134155188#9 -134155188#8 -134155188#7 -134155188#6 -134155188#5 -134155188#3 -134155188#0 -107426163#3 -107426163#2 -107426163#1 -107426172#3 -107426172#2 -107426172#1 -107426172#0 -107426139 -107426154#1 -107426154#0 -107426174 -107426186#3 -107426186#0 -107426181#6 -107426181#5 -107426181#4 -107426181#1 -107426181#0 -107426151 -107426158#1 -107426158#0 -107426184 -107426149#1 -107426149#0 -532288764#5 -532288764#3 154986389#0 154986389#1 154986389#2 154986389#3 1113770111#0 1113770111#1 1113770110#1 1113770110#2 39971281 121952583#0 121952583#4 -121952583#4"/>
    </vehicle>
    <vehicle id="21" depart="10.50">
        <route edges="-814585369 150260120#1 -209264417 -59619003#2 39971281 121952569#0 121952569#2 121952569#6 121952569#7 121952569#8 121952569#9 1112476323#0 1112476323#2 4549612#0 4549612#1 4549612#2 4549612#3 4549612#4 4549612#5 4549612#6 1112476321#0 1112476321#1 1112476320#0 1112476320#1 755909400 38314737#2 37523685#0 37523685#1 37523685#4 966689855#0 48502796#1 48502796#2 48502796#3 48502796#7 48502796#8 48502796#9 48502796#10 1139294219#0 1139294219#2 551852685#1 -551896092#16 -551896092#14 -551896092#13 -551896092#11 -551896092#10 -551896092#6 -551896092#2 -1116516510#3 37856845#0 1121159830 1149694800 111238571#0 111238571#1 111238571#2 111238571#3 111238571#4 111238571#5 111238571#6 1121159827#1 111702116#2 111702116#3 111702116#5 875445774#0 81082987#1 26982330#0 26982330#1 26982330#2 26982330#3 26982330#5 26982330#6 26982330#7 26982330#9 1177239721#0 1177239721#1 1177239721#2 1177239716 1177239718#0 1177239718#1 1177239717#0 1177239717#1 1177239717#2 1177239722#1 111238574#0 111238574#1 111238574#3 39231924#2 39231924#3 80403739 107289445 107289448 -332722107#5 -332722107#3 -332722107#2 -332722107#0 -135860932#14 -135860932#13 -135860932#12 -135860932#11 40735732#2 40735732#4 -40735733#1 -40735733#0 -40735734#9 -40735734#8 -40735734#7 -40735734#6 -40735734#5 -40735734#3 -106568372#1 -106568372#0 38279263#2 110904634#0"/>
    </vehicle>
    <vehicle id="22" depart="11.00">
        <route edges="-160591231#6 -160591231#5 160591231#4 160591231#6 966246757 -85426929#6 -85426929#5 -85426929#4 -85426929#2 -85426929#1 514292068#0 514292068#2 697584768 441638870#2 85426924 657572420 80339839#1 351678831#0 351678831#4 351678831#5 351678831#6 167693273 170590353#0 170590353#1 170590353#4 170590353#5 170590353#8 170590353#11 170590353#14 170590353#15 170590353#19 170594819#0 170594819#3 170594819#4 170594819#8 170594819#11 170594819#13 882052276 -882052276"/>
    </vehicle>
    <vehicle id="23" depart="11.50">
        <route edges="-22897942#2 22897942#2 22897942#3 -37761134#4 -37761134#2 -251662002#0 -220847823#1 -220847823#0 -22956132#1 22956140 38249809 646315028 -220847818 -38306581#7 -38306581#6 -38306581#5 -38306581#4 -38306581#3 -38306581#2 -38306581#1 -38306581#0 -134249211 -112610152#5 -112610152#4 -112610152#3 -112610152#0 -38235045#1 -378382464#4 -378382464#3 -149190777#4 -149190777#1 -135860931#14 -135860931#13 -135860931#12 -135860931#11 -135860931#9 -135860931#8 -135860931#6 -135860931#5 -135860931#4 -135860931#3 -135860931#2 -135860931#0 -1171800325#2 -1171800325#0 -277848731#2 -277848731#1 -81632518#4 -81632518#3 -81632518#2 -81632513#1 -81632513#0 -149146783#20 -149146783#18 -149146783#17 -149146783#16 -149146783#15 -149146783#14 -149146783#13 -149146765#8 -149146765#5 -149146765#4 -149146765#2 -149146765#1 102675064#0 102675064#1 102675064#2 102675064#3 102675064#4 -22908653#0 -1027290194#1 -1027290194#0 -1034770922#1 -1034770922#0 -257025800 -1027290193#2 -1027290193#0 -170594817 -256806942#1 -257027156#2 -257027156#0 -257027155#1 -257027153#2 -257027153#0 -37886525 -116810527 -257028826#2 -257028826#1 -257171426#2 -257171426#0 -257171430#2 -257171430#1 257171438 1095217615#8"/>
    </vehicle>
    <vehicle id="24" depart="12.00">
        <route edges="332306557#0 572784464#1 572784464#2 572784464#3 572784464#4 22876705 22876730#0 572744578#0 572744578#1 -111604752#3 -209335800#5 -209335800#4 -209335800#1 -209335800#0 -791466952#1 -111604743#2 -111604743#0 -659497665#2 -659497665#1 -305638174#2 -572744506#1 -572744506#0 -41133511 -209335805 -209335804#1 -22898291#1 -22898291#0 839332424#0 839332424#1 900277729#0 900277729#1 134650907#0 134650907#2 -839327616#8 -839327616#7 -839327616#6 -839327616#5 -839327616#4 -839327616#3 -839327616#1 -154889905#2 -154889905#1 -154889905#0 -101332765#6 -101332765#5 -101332765#2 -101332765#1 125743679#0 125743679#2 133270821 966240515 37709787#0 480941493#0 480941493#1 480941493#2 480941495#0 480941495#1 111020473#2 111020473#3 111020473#4 37738036#0 37738036#1 37738036#2 37738036#4 37738036#6 37738036#8 37738036#9 37738036#10 37738036#11 125665630#0 125665630#1 635342379#0 635342379#1 635342379#2 635342379#3 635342379#4 324352206#0 324352206#1 324352206#2 125665634#0"/>
    </vehicle>
    <vehicle id="25" depart="12.50">
        <route edges="1170352353#0 1170352353#2 1170352353#3 -220847827 302763280#1 302763280#2 302763280#6 302763280#7 -182677999 220847825#0 220847825#3 33227046#1 727581412#0 727581412#1 727581412#2 727581415#0 727581415#1 727581415#2 108985100#0 108985100#1 191213700#0 191213700#1 191213700#2 191213700#5 28106606#1 28106606#2 111581102#3 191228014 572740897#0 572740897#1 191228013 -480837521 -36818172#1 -36818172#0 480837519 157392062#1 157392062#2 135477622#1 124508020#0 124508020#1 124508020#2 157392063#1 -43569688#3 -43569688#2 -43569688#1 -43569688#0 -727584878#0 -727584876#3 -727584876#2"/>
    </vehicle>
    <vehicle id="26" depart="13.00">
        <route edges="103504284#0 103504284#1 -122258528#0 38118392#1 67099050#0 67099050#1 67099050#2 81563063#1 122258521#0 122258521#1 122258521#2 874006666#1 874006666#2 154500704 172522363#0 172522363#1 154500714 154500709 874006662#0 874006662#1 23262202#0 23262202#1 23262202#2 23262202#3 23262202#4 563843023 95685946 95685949#0 95685949#1 563843025#0 563843025#1 563843025#2 563843025#3 563843025#4 133868202 133868204#0 133868204#1 23262200#0 23262200#1 23262200#2 23262200#3 23262200#4 23262200#5 23262200#11 23262200#13 23262200#14 130443639 130443636#1 130443636#5 130443636#6 130443636#9 130443636#10 659342821 134572324#0 134572324#2 793501043 134572325#0 447701120#0 447701120#1 447701120#2 447701120#6 447701120#7 447701120#8 677704593#0 677704593#1 677704593#3 677704593#4 677704593#5 368807876#0 824542215#1 824542215#2 824542215#3 824542215#4 824542215#5 824542215#6 824542215#7 824542215#8 824542215#9 824542215#11"/>
    </vehicle>
    <vehicle id="27" depart="13.50">
        <route edges="36812654#20 955894304#5 955894304#6 111262067#0 111262067#1 111262067#4 111262067#5 111262067#7 111262067#9 111262067#10 111262067#11 -125667772#4 -125667772#3 -125667772#2 -125667772#0 125667775 134640686#1 134640686#2 134640686#3 -1055936857 -127737007#9 -127737007#8 -127737007#7 -127737007#6 -127737007#5 -127737007#4 -127737007#3 -127737007#2 -127737007#1 -127737007#0 -138713421#1 -138713421#0 -127737006#2 -127737006#1 -127737006#0 138713420#0 138022926#0 316018812#1"/>
    </vehicle>
    <vehicle id="28" depart="14.00">