<?xml version="1.0" encoding="UTF-8"?>

<!-- generated on 2023-12-18 10:14:27 by Eclipse SUMO duarouter Version 1.12.0
<configuration xmlns:xsi="http://www.w3.org/2001/XMLSchema-instance" xsi:noNamespaceSchemaLocation="http://sumo.dlr.de/xsd/duarouterConfiguration.xsd">

    <input>
        <net-file value="turin.net.xml"/>
        <route-files value="turin.trips.xml"/>
    </input>

    <output>
        <output-file value="turin.trips.xml.tmp"/>
        <write-trips value="true"/>
    </output>

    <time>
        <begin value="0"/>
        <end value="200"/>
    </time>

    <report>
        <no-warnings value="true"/>
        <ignore-errors value="true"/>
        <no-step-log value="true"/>
    </report>

</configuration>
-->

<routes xmlns:xsi="http://www.w3.org/2001/XMLSchema-instance" xsi:noNamespaceSchemaLocation="http://sumo.dlr.de/xsd/routes_file.xsd">
    <trip id="0" depart="0.00" from="36917807#1" to="-1090772073"/>
    <trip id="1" depart="0.50" from="108646524#10" to="-1090772073"/>
    <trip id="2" depart="1.00" from="405900732#2" to="-1090772073"/>
    <trip id="4" depart="2.00" from="134572341#1" to="-1090772073"/>
    <trip id="5" depart="2.50" from="-862447325#0" to="-1090772073"/>
    <trip id="6" depart="3.00" from="-112610129#1" to="-1090772073"/>
    <trip id="7" depart="3.50" from="37197350#2" to="-1090772073"/>
    <trip id="8" depart="4.00" from="-873157351#5" to="-1090772073"/>
    <trip id="9" depart="4.50" from="551862986" to="-1090772073"/>
    <trip id="10" depart="5.00" from="514292067#0" to="-1090772073"/>
    <trip id="11" depart="5.50" from="1167094067#0" to="-1090772073"/>
    <trip id="12" depart="6.00" from="873283814#1" to="-1090772073"/>
    <trip id="13" depart="6.50" from="-239720651#2" to="-1090772073"/>
    <trip id="14" depart="7.00" from="58779718#0" to="-1090772073"/>
    <trip id="15" depart="7.50" from="525115165#0" to="-1090772073"/>
    <trip id="17" depart="8.50" from="125665630#0" to="-1090772073"/>
    <trip id="18" depart="9.00" from="572714696#0" to="-1090772073"/>
    <trip id="19" depart="9.50" from="649706898" to="-1090772073"/>
    <trip id="20" depart="10.00" from="38027667#4" to="-1090772073"/>
    <trip id="21" depart="10.50" from="-932750555" to="-1090772073"/>
    <trip id="22" depart="11.00" from="-173211625#3" to="-1090772073"/>
    <trip id="23" depart="11.50" from="-257538842#3" to="-1090772073"/>
    <trip id="24" depart="12.00" from="36903944#13" to="-1090772073"/>
    <trip id="25" depart="12.50" from="1219294903" to="-1090772073"/>
    <trip id="26" depart="13.00" from="107309867#0" to="-1090772073"/>
    <trip id="27" depart="13.50" from="37140611#17" to="-1090772073"/>
    <trip id="28" depart="14.00" from="-546554579" to="-1090772073"/>
    <trip id="29" depart="14.50" from="-447701732" to="-1090772073"/>
    <trip id="30" depart="15.00" from="93918016#0" to="-1090772073"/>
    <trip id="31" depart="15.50" from="257027155#0" to="-1090772073"/>
    <trip id="32" depart="16.00" from="58413965#5" to="-1090772073"/>
    <trip id="33" depart="16.50" from="-93918572#6" to="-1090772073"/>
    <trip id="34" depart="17.00" from="111995448#0" to="-1090772073"/>
    <trip id="35" depart="17.50" from="-818129570" to="-1090772073"/>
    <trip id="36" depart="18.00" from="670451796#1" to="-1090772073"/>
    <trip id="37" depart="18.50" from="37290625#18" to="-1090772073"/>
    <trip id="38" depart="19.00" from="80262371#1" to="-1090772073"/>
    <trip id="39" depart="19.50" from="107161641#1" to="-1090772073"/>
    <trip id="40" depart="20.00" from="257357075#11" to="-1090772073"/>
    <trip id="41" depart="20.50" from="28193029#0" to="-1090772073"/>
    <trip id="42" depart="21.00" from="133615152" to="-1090772073"/>
    <trip id="43" depart="21.50" from="992676609#3" to="-1090772073"/>
    <trip id="44" depart="22.00" from="-23683989#16" to="-1090772073"/>
    <trip id="45" depart="22.50" from="-309750763" to="-1090772073"/>
    <trip id="46" depart="23.00" from="487814039#7" to="-1090772073"/>
    <trip id="47" depart="23.50" from="-149422199#1" to="-1090772073"/>
    <trip id="48" depart="24.00" from="966696320#2" to="-1090772073"/>
    <trip id="49" depart="24.50" from="881245049#1" to="-1090772073"/>
    <trip id="50" depart="25.00" from="-107426149#0" to="-1090772073"/>
    <trip id="51" depart="25.50" from="37761131#3" to="-1090772073"/>
    <trip id="52" depart="26.00" from="107309867#0" to="-1090772073"/>
    <trip id="53" depart="26.50" from="-323978917#0" to="-1090772073"/>
    <trip id="54" depart="27.00" from="149417749#3" to="-1090772073"/>
    <trip id="55" depart="27.50" from="667827203#6" to="-1090772073"/>
    <trip id="56" depart="28.00" from="185597912#2" to="-1090772073"/>
    <trip id="57" depart="28.50" from="793496329#1" to="-1090772073"/>
    <trip id="58" depart="29.00" from="111262063#4" to="-1090772073"/>
    <trip id="59" depart="29.50" from="323978915#9" to="-1090772073"/>
    <trip id="60" depart="30.00" from="43836955#11" to="-1090772073"/>
    <trip id="61" depart="30.50" from="468740135" to="-1090772073"/>
    <trip id="62" depart="31.00" from="-102597341#0" to="-1090772073"/>
    <trip id="63" depart="31.50" from="-1115537651#1" to="-1090772073"/>
    <trip id="64" depart="32.00" from="674865987#0" to="-1090772073"/>
    <trip id="65" depart="32.50" from="111702087" to="-1090772073"/>
    <trip id="66" depart="33.00" from="673537946#6" to="-1090772073"/>
    <trip id="67" depart="33.50" from="-196325888#3" to="-1090772073"/>
    <trip id="68" depart="34.00" from="-154716204#1" to="-1090772073"/>
    <trip id="69" depart="34.50" from="44044488#3" to="-1090772073"/>
    <trip id="70" depart="35.00" from="154716236#3" to="-1090772073"/>
    <trip id="71" depart="35.50" from="107166846#1" to="-1090772073"/>
    <trip id="72" depart="36.00" from="134650932#0" to="-1090772073"/>
    <trip id="73" depart="36.50" from="23262202#2" to="-1090772073"/>
    <trip id="74" depart="37.00" from="-764420807#4" to="-1090772073"/>
    <trip id="75" depart="37.50" from="966246760#1" to="-1090772073"/>
    <trip id="76" depart="38.00" from="149023979#1" to="-1090772073"/>
    <trip id="77" depart="38.50" from="-36917805#1" to="-1090772073"/>
    <trip id="78" depart="39.00" from="1158706538#0" to="-1090772073"/>
    <trip id="79" depart="39.50" from="-955894304#6" to="-1090772073"/>
    <trip id="80" depart="40.00" from="-154716217#4" to="-1090772073"/>
    <trip id="81" depart="40.50" from="-93918572#5" to="-1090772073"/>
    <trip id="82" depart="41.00" from="646315018#5" to="-1090772073"/>
    <trip id="83" depart="41.50" from="102643106#0" to="-1090772073"/>
    <trip id="84" depart="42.00" from="-8272356#2" to="-1090772073"/>
    <trip id="85" depart="42.50" from="824542217#1" to="-1090772073"/>
    <trip id="86" depart="43.00" from="154716217#0" to="-1090772073"/>
    <trip id="87" depart="43.50" from="525115165#7" to="-1090772073"/>
    <trip id="88" depart="44.00" from="-257025802#0" to="-1090772073"/>
    <trip id="89" depart="44.50" from="134756557#1" to="-1090772073"/>
    <trip id="90" depart="45.00" from="39977260#0" to="-1090772073"/>
    <trip id="91" depart="45.50" from="903719304#2" to="-1090772073"/>
    <trip id="92" depart="46.00" from="133868181#13" to="-1090772073"/>
    <trip id="93" depart="46.50" from="649706894#5" to="-1090772073"/>
    <trip id="94" depart="47.00" from="-673537947#0" to="-1090772073"/>
    <trip id="95" depart="47.50" from="134572341#1" to="-1090772073"/>
    <trip id="96" depart="48.00" from="105600449" to="-1090772073"/>
    <trip id="97" depart="48.50" from="149116227#7" to="-1090772073"/>
    <trip id="98" depart="49.00" from="243506937#2" to="-1090772073"/>
    <trip id="99" depart="49.50" from="996232968#0" to="-1090772073"/>
    <trip id="100" depart="50.00" from="880136759#0" to="-1090772073"/>
    <trip id="101" depart="50.50" from="58780682#0" to="-1090772073"/>
    <trip id="102" depart="51.00" from="160600491" to="-1090772073"/>
    <trip id="103" depart="51.50" from="133868172" to="-1090772073"/>
    <trip id="104" depart="52.00" from="125665633#2" to="-1090772073"/>
    <trip id="105" depart="52.50" from="107166846#3" to="-1090772073"/>
    <trip id="106" depart="53.00" from="149422199#1" to="-1090772073"/>
    <trip id="107" depart="53.50" from="873283815#2" to="-1090772073"/>
    <trip id="108" depart="54.00" from="253514580#6" to="-1090772073"/>
    <trip id="109" depart="54.50" from="-40745994#0" to="-1090772073"/>
    <trip id="110" depart="55.00" from="87988971#1" to="-1090772073"/>
    <trip id="111" depart="55.50" from="234282661#3" to="-1090772073"/>
    <trip id="112" depart="56.00" from="-145954704#4" to="-1090772073"/>
    <trip id="114" depart="57.00" from="-424269158#5" to="-1090772073"/>
    <trip id="115" depart="57.50" from="-174466482#3" to="-1090772073"/>
    <trip id="116" depart="58.00" from="302566464#1" to="-1090772073"/>
    <trip id="117" depart="58.50" from="101516512" to="-1090772073"/>
    <trip id="118" depart="59.00" from="737062163#2" to="-1090772073"/>
    <trip id="119" depart="59.50" from="302520057#5" to="-1090772073"/>
    <trip id="120" depart="60.00" from="134460813#1" to="-1090772073"/>
    <trip id="121" depart="60.50" from="22956122#1" to="-1090772073"/>
    <trip id="122" depart="61.00" from="-80337280#2" to="-1090772073"/>
    <trip id="123" depart="61.50" from="102675064#4" to="-1090772073"/>
    <trip id="124" depart="62.00" from="37676508#5" to="-1090772073"/>
    <trip id="125" depart="62.50" from="111995455#4" to="-1090772073"/>
    <trip id="126" depart="63.00" from="-160584981" to="-1090772073"/>
    <trip id="127" depart="63.50" from="992676617" to="-1090772073"/>
    <trip id="128" depart="64.00" from="-160587538#4" to="-1090772073"/>
    <trip id="129" depart="64.50" from="107166846#3" to="-1090772073"/>
    <trip id="130" depart="65.00" from="677378525#1" to="-1090772073"/>
    <trip id="131" depart="65.50" from="1219292187#3" to="-1090772073"/>
    <trip id="132" depart="66.00" from="572748499#1" to="-1090772073"/>
    <trip id="133" depart="66.50" from="324738168#0" to="-1090772073"/>
    <trip id="134" depart="67.00" from="37278470#1" to="-1090772073"/>
    <trip id="135" depart="67.50" from="559747870#6" to="-1090772073"/>
    <trip id="136" depart="68.00" from="37480173#9" to="-1090772073"/>
    <trip id="137" depart="68.50" from="-37908670#1" to="-1090772073"/>
    <trip id="138" depart="69.00" from="-287540612" to="-1090772073"/>
    <trip id="139" depart="69.50" from="108637165#6" to="-1090772073"/>
    <trip id="140" depart="70.00" from="38314735#1" to="-1090772073"/>
    <trip id="141" depart="70.50" from="368807875#17" to="-1090772073"/>
    <trip id="142" depart="71.00" from="166457325#1" to="-1090772073"/>
    <trip id="143" depart="71.50" from="58777841#0" to="-1090772073"/>
    <trip id="144" depart="72.00" from="134756557#1" to="-1090772073"/>
    <trip id="145" depart="72.50" from="-1055973952#3" to="-1090772073"/>
    <trip id="146" depart="73.00" from="36916541#11" to="-1090772073"/>
    <trip id="147" depart="73.50" from="40745990#4" to="-1090772073"/>
    <trip id="148" depart="74.00" from="135856934#1" to="-1090772073"/>
    <trip id="149" depart="74.50" from="-163979749#7" to="-1090772073"/>
    <trip id="150" depart="75.00" from="757788069#2" to="-1090772073"/>
    <trip id="151" depart="75.50" from="572748508#3" to="-1090772073"/>
    <trip id="152" depart="76.00" from="-39977259#4" to="-1090772073"/>
    <trip id="153" depart="76.50" from="111702116#2" to="-1090772073"/>
    <trip id="154" depart="77.00" from="49047583#3" to="-1090772073"/>
    <trip id="155" depart="77.50" from="756569658#2" to="-1090772073"/>
    <trip id="156" depart="78.00" from="105600448#0" to="-1090772073"/>
    <trip id="157" depart="78.50" from="48056805#3" to="-1090772073"/>
    <trip id="158" depart="79.00" from="134009735#2" to="-1090772073"/>
    <trip id="159" depart="79.50" from="-40735740#5" to="-1090772073"/>
    <trip id="160" depart="80.00" from="657572415#1" to="-1090772073"/>
    <trip id="161" depart="80.50" from="551896093#2" to="-1090772073"/>
    <trip id="162" depart="81.00" from="-111995455#2" to="-1090772073"/>
    <trip id="163" depart="81.50" from="1148510882#0" to="-1090772073"/>
    <trip id="164" depart="82.00" from="50338704#0" to="-1090772073"/>
    <trip id="165" depart="82.50" from="551896093#2" to="-1090772073"/>
    <trip id="166" depart="83.00" from="48275803#3" to="-1090772073"/>
    <trip id="167" depart="83.50" from="666410867#3" to="-1090772073"/>
    <trip id="168" depart="84.00" from="-880575679#3" to="-1090772073"/>
    <trip id="169" depart="84.50" from="149862033#2" to="-1090772073"/>
    <trip id="170" depart="85.00" from="49024292#0" to="-1090772073"/>
    <trip id="171" depart="85.50" from="-111859668#6" to="-1090772073"/>
    <trip id="172" depart="86.00" from="1136460111#8" to="-1090772073"/>
    <trip id="173" depart="86.50" from="876531527#0" to="-1090772073"/>
    <trip id="174" depart="87.00" from="36934167#0" to="-1090772073"/>
    <trip id="175" depart="87.50" from="89415370#1" to="-1090772073"/>
    <trip id="176" depart="88.00" from="83387810#4" to="-1090772073"/>
    <trip id="177" depart="88.50" from="880575681#1" to="-1090772073"/>
    <trip id="178" depart="89.00" from="875445781" to="-1090772073"/>
    <trip id="179" depart="89.50" from="-287680143#3" to="-1090772073"/>
    <trip id="180" depart="90.00" from="399631780#4" to="-1090772073"/>
    <trip id="181" depart="90.50" from="318996538#9" to="-1090772073"/>
    <trip id="182" depart="91.00" from="130443636#5" to="-1090772073"/>
    <trip id="183" depart="91.50" from="106332325#1" to="-1090772073"/>
    <trip id="184" depart="92.00" from="-103428639#0" to="-1090772073"/>
    <trip id="186" depart="93.00" from="40745995#0" to="-1090772073"/>
    <trip id="187" depart="93.50" from="1218355249#1" to="-1090772073"/>
    <trip id="188" depart="94.00" from="375045488#11" to="-1090772073"/>
    <trip id="189" depart="94.50" from="1118456139" to="-1090772073"/>
    <trip id="190" depart="95.00" from="38320045" to="-1090772073"/>
    <trip id="191" depart="95.50" from="111801779#1" to="-1090772073"/>
    <trip id="192" depart="96.00" from="133868181#10" to="-1090772073"/>
    <trip id="193" depart="96.50" from="-37638470#4" to="-1090772073"/>
    <trip id="194" depart="97.00" from="835696376#1" to="-1090772073"/>
    <trip id="195" depart="97.50" from="757534983#4" to="-1090772073"/>
    <trip id="196" depart="98.00" from="111504835#4" to="-1090772073"/>
    <trip id="197" depart="98.50" from="-1023658749" to="-1090772073"/>
    <trip id="198" depart="99.00" from="135860931#4" to="-1090772073"/>
    <trip id="199" depart="99.50" from="37279144#1" to="-1090772073"/>
    <trip id="200" depart="100.00" from="149116225#5" to="-873278979#1"/>
    <trip id="201" depart="100.50" from="154716221#1" to="764003828#1"/>
    <trip id="202" depart="101.00" from="49047583#1" to="-48801898#0"/>
    <trip id="203" depart="101.50" from="-193444407" to="23015870#3"/>
    <trip id="204" depart="102.00" from="36876577#9" to="1174493054#1"/>
    <trip id="205" depart="102.50" from="56015537#10" to="43837963#2"/>
    <trip id="206" depart="103.00" from="37679198#5" to="101272426#0"/>
    <trip id="207" depart="103.50" from="-757091929" to="-108722416#0"/>
    <trip id="208" depart="104.00" from="104390538#0" to="160591232#4"/>
    <trip id="209" depart="104.50" from="59159263" to="-149819242#1"/>
    <trip id="210" depart="105.00" from="134417910#2" to="36929941"/>
    <trip id="211" depart="105.50" from="-688502311#1" to="38081495#1"/>
    <trip id="212" depart="106.00" from="172454686#0" to="106615437#0"/>
    <trip id="213" depart="106.50" from="37290625#7" to="-104675798#1"/>
    <trip id="214" depart="107.00" from="42212710#0" to="48066103#1"/>
    <trip id="215" depart="107.50" from="-286598317#2" to="145954704#4"/>
    <trip id="216" depart="108.00" from="-56248964#3" to="874006663#1"/>
    <trip id="217" depart="108.50" from="22897766#0" to="-130443659#9"/>
    <trip id="218" depart="109.00" from="105600448#0" to="646274912"/>
    <trip id="219" depart="109.50" from="149819225#0" to="552361914#1"/>
    <trip id="220" depart="110.00" from="37631038#1" to="926732503#0"/>
    <trip id="221" depart="110.50" from="302763280#3" to="862447333#4"/>
    <trip id="222" depart="111.00" from="741000720#2" to="36131924"/>
    <trip id="223" depart="111.50" from="38320044#4" to="194336585#1"/>
    <trip id="224" depart="112.00" from="572714697#3" to="254093319"/>
    <trip id="225" depart="112.50" from="755909401#1" to="43019858#3"/>
    <trip id="226" depart="113.00" from="154716233#0" to="108646527#3"/>
    <trip id="227" depart="113.50" from="105377039#2" to="37194943#0"/>
    <trip id="228" depart="114.00" from="44044488#2" to="23054660#0"/>
    <trip id="229" depart="114.50" from="36773698#0" to="110904625#1"/>
    <trip id="230" depart="115.00" from="-170567934#1" to="111549936"/>
    <trip id="231" depart="115.50" from="108637165#10" to="1148510884#2"/>
    <trip id="232" depart="116.00" from="23262203#2" to="-37908666#10"/>
    <trip id="233" depart="116.50" from="-992676612" to="38027982#16"/>
    <trip id="234" depart="117.00" from="38027982#16" to="-139083324#4"/>
    <trip id="235" depart="117.50" from="134109954#4" to="24573930#2"/>
    <trip id="236" depart="118.00" from="134417955#1" to="-8272356#2"/>
    <trip id="237" depart="118.50" from="134543564#0" to="770822810"/>
    <trip id="238" depart="119.00" from="28193005#0" to="38027985#1"/>
    <trip id="240" depart="120.00" from="127737002#0" to="-104675798#1"/>
    <trip id="241" depart="120.50" from="1186591720#2" to="44104490#3"/>
    <trip id="242" depart="121.00" from="60131972#5" to="873155847#2"/>
    <trip id="243" depart="121.50" from="134460803#0" to="43684742#7"/>
    <trip id="244" depart="122.00" from="239720651#14" to="331110166#4"/>
    <trip id="245" depart="122.50" from="-873160682#0" to="-913296325"/>
    <trip id="246" depart="123.00" from="144874012#2" to="-111549936"/>
    <trip id="247" depart="123.50" from="1149694683#2" to="37837441"/>
    <trip id="248" depart="124.00" from="133868224#0" to="-447699317#0"/>
    <trip id="249" depart="124.50" from="154409622#3" to="-37138416#2"/>
    <trip id="250" depart="125.00" from="360136478#1" to="-110678682#0"/>
    <trip id="251" depart="125.50" from="132319223#1" to="27781803#8"/>
    <trip id="252" depart="126.00" from="-112610156#5" to="37290625#16"/>
    <trip id="253" depart="126.50" from="-37973572#17" to="154716217#4"/>
    <trip id="254" depart="127.00" from="-134572324#3" to="130443669#5"/>
    <trip id="255" depart="127.50" from="-82207172#1" to="1166887819#4"/>
    <trip id="256" depart="128.00" from="43836952#0" to="130443669#5"/>
    <trip id="257" depart="128.50" from="424518798#3" to="584766944#0"/>
    <trip id="258" depart="129.00" from="106255758#0" to="-166605404#0"/>
    <trip id="259" depart="129.50" from="-111549936" to="24319547#1"/>
    <trip id="260" depart="130.00" from="99754717#1" to="1218301853#0"/>
    <trip id="261" depart="130.50" from="37201907#2" to="487814040#6"/>
    <trip id="262" depart="131.00" from="372500115#0" to="441660464#0"/>
    <trip id="263" depart="131.50" from="862447324#2" to="-768645864#6"/>
    <trip id="264" depart="132.00" from="-111604730#3" to="-39977260#3"/>
    <trip id="265" depart="132.50" from="-37387153#1" to="37761132#10"/>
    <trip id="266" depart="133.00" from="257538844#6" to="-89418947#1"/>
    <trip id="267" depart="133.50" from="37973568#6" to="47482093#1"/>
    <trip id="268" depart="134.00" from="-486663539" to="346316520"/>
    <trip id="269" depart="134.50" from="41709694#2" to="-315500328#2"/>
    <trip id="270" depart="135.00" from="560312460#1" to="876124552#1"/>
    <trip id="271" depart="135.50" from="-287680142#7" to="-110514869#0"/>
    <trip id="272" depart="136.00" from="111801811#2" to="37837433#1"/>
    <trip id="273" depart="136.50" from="874006659#1" to="134124979#1"/>
    <trip id="274" depart="137.00" from="38228091#0" to="-154716196#8"/>
    <trip id="275" depart="137.50" from="37837437" to="36916541#23"/>
    <trip id="276" depart="138.00" from="-257685405#2" to="481228653"/>
    <trip id="277" depart="138.50" from="592394870#1" to="324738170#4"/>
    <trip id="278" depart="139.00" from="-36917807#1" to="89420372#3"/>
    <trip id="279" depart="139.50" from="48066103#1" to="1218278303#6"/>
    <trip id="280" depart="140.00" from="135860919#11" to="129780018#1"/>
    <trip id="281" depart="140.50" from="191229199#5" to="120676229#2"/>
    <trip id="282" depart="141.00" from="59159262#0" to="572748500#0"/>
    <trip id="283" depart="141.50" from="-28109056#1" to="875445774#1"/>
    <trip id="284" depart="142.00" from="36903944#12" to="580542103#2"/>
    <trip id="285" depart="142.50" from="38027983#15" to="149146771#1"/>
    <trip id="286" depart="143.00" from="40196941#2" to="876131442#1"/>
    <trip id="287" depart="143.50" from="107426178#0" to="561062058#0"/>
    <trip id="288" depart="144.00" from="23184079#0" to="170594819#0"/>
    <trip id="289" depart="144.50" from="144874008#0" to="40760631#0"/>
    <trip id="290" depart="145.00" from="107426154#1" to="6502123#10"/>
    <trip id="291" depart="145.50" from="572714703#1" to="-191108891"/>
    <trip id="292" depart="146.00" from="677909922#1" to="106615436#3"/>
    <trip id="293" depart="146.50" from="151212514#1" to="359380195#4"/>
    <trip id="294" depart="147.00" from="125665633#2" to="-111238584#6"/>
    <trip id="295" depart="147.50" from="59618373#0" to="-58413965#5"/>
    <trip id="296" depart="148.00" from="-82215683#9" to="551852688#0"/>
    <trip id="297" depart="148.50" from="1167094067#1" to="70615473#7"/>
    <trip id="298" depart="149.00" from="37973571#3" to="110904659"/>
    <trip id="299" depart="149.50" from="-107028581#0" to="855899675#7"/>
    <trip id="300" depart="150.00" from="-196325888#2" to="400406089#1"/>
    <trip id="301" depart="150.50" from="166457326#0" to="447701119#0"/>
    <trip id="302" depart="151.00" from="37837437" to="37348279#2"/>
    <trip id="303" depart="151.50" from="170590353#0" to="50625008#1"/>
    <trip id="304" depart="152.00" from="-239720651#7" to="-94703295#0"/>
    <trip id="305" depart="152.50" from="37837446#2" to="112610096#1"/>
    <trip id="306" depart="153.00" from="28107362#9" to="160587537#2"/>
    <trip id="307" depart="153.50" from="23066446#2" to="145954704#4"/>
    <trip id="308" depart="154.00" from="40920407#4" to="116810554#2"/>
    <trip id="309" depart="154.50" from="38027103#1" to="110678682#4"/>
    <trip id="310" depart="155.00" from="106253191#0" to="-356857809#0"/>
    <trip id="311" depart="155.50" from="-681203245#1" to="-332861394#9"/>
    <trip id="312" depart="156.00" from="23182366#4" to="454001361#2"/>
    <trip id="313" depart="156.50" from="-60131994#2" to="-893901258#0"/>
    <trip id="314" depart="157.00" from="160587546#1" to="40735733#5"/>
    <trip id="315" depart="157.50" from="881916068#0" to="23088940#14"/>
    <trip id="316" depart="158.00" from="1102649879#2" to="-251612439"/>
    <trip id="317" depart="158.50" from="-688443266#1" to="102273050#14"/>
    <trip id="318" depart="159.00" from="-58413959#1" to="-106568791#2"/>
    <trip id="319" depart="159.50" from="23182332#2" to="110904620"/>
    <trip id="320" depart="160.00" from="881905851#0" to="257357075#9"/>
    <trip id="321" depart="160.50" from="37942669#2" to="-369511399#4"/>
    <trip id="322" depart="161.00" from="659342832#12" to="179917799#7"/>
    <trip id="323" depart="161.50" from="666707219#0" to="28243322#0"/>
    <trip id="324" depart="162.00" from="154500706#0" to="149146791#9"/>
    <trip id="325" depart="162.50" from="-59712741#0" to="-130443671"/>
    <trip id="326" depart="163.00" from="836500945#2" to="163979752"/>
    <trip id="327" depart="163.50" from="562073116#4" to="134155167#0"/>
    <trip id="328" depart="164.00" from="-160591233#1" to="36927092#5"/>
    <trip id="329" depart="164.50" from="-135860931#13" to="-38314742#5"/>
    <trip id="330" depart="165.00" from="257357078#9" to="112568299#1"/>
    <trip id="331" depart="165.50" from="966122020#0" to="-331110166#3"/>
    <trip id="332" depart="166.00" from="438982188#1" to="344663261#1"/>
    <trip id="333" depart="166.50" from="487814035#1" to="101272432#4"/>
    <trip id="334" depart="167.00" from="22956089#0" to="149864360#3"/>
    <trip id="335" depart="167.50" from="149116227#1" to="659342834#0"/>
    <trip id="336" depart="168.00" from="93919688#1" to="112568337"/>
    <trip id="337" depart="168.50" from="359387031#4" to="359380194#0"/>
    <trip id="338" depart="169.00" from="40735740#3" to="855883542#6"/>
    <trip id="339" depart="169.50" from="-816120700" to="-85978184#0"/>
    <trip id="340" depart="170.00" from="37387153#2" to="-40735734#0"/>
    <trip id="341" depart="170.50" from="-56015537#9" to="-151912056"/>
    <trip id="342" depart="171.00" from="-104148308#0" to="149864360#3"/>
    <trip id="343" depart="171.50" from="302426938#1" to="111702089#0"/>
    <trip id="344" depart="172.00" from="-99754720" to="38321123#3"/>
    <trip id="345" depart="172.50" from="38027103#5" to="151212520#5"/>
    <trip id="346" depart="173.00" from="37830679#2" to="81547761#0"/>
    <trip id="347" depart="173.50" from="483629577#0" to="36903944#11"/>
    <trip id="348" depart="174.00" from="37449247#5" to="824542217#3"/>
    <trip id="349" depart="174.50" from="135016488#1" to="246856879#0"/>
    <trip id="350" depart="175.00" from="37140611#10" to="80337257#0"/>
    <trip id="351" depart="175.50" from="572328742#2" to="-149819232#3"/>
    <trip id="352" depart="176.00" from="-48122678" to="112610124#0"/>
    <trip id="353" depart="176.50" from="41920811#0" to="28107344#1"/>
    <trip id="354" depart="177.00" from="110904559#0" to="-36876578#8"/>
    <trip id="355" depart="177.50" from="37837430#0" to="38081516#1"/>
    <trip id="356" depart="178.00" from="83709549#19" to="192218219#0"/>
    <trip id="357" depart="178.50" from="172409588#1" to="-160591234#0"/>
    <trip id="358" depart="179.00" from="-130443630#16" to="149116226#3"/>
    <trip id="359" depart="179.50" from="112610139#18" to="107426143#0"/>
    <trip id="360" depart="180.00" from="-23683989#3" to="875446015#0"/>
    <trip id="361" depart="180.50" from="572748513#5" to="286598320#1"/>
    <trip id="362" depart="181.00" from="862447331#3" to="996232969#5"/>
    <trip id="363" depart="181.50" from="37679196#3" to="110531881#2"/>
    <trip id="364" depart="182.00" from="-130443630#8" to="44641744#0"/>
    <trip id="365" depart="182.50" from="154716197#0" to="375045488#10"/>
    <trip id="366" depart="183.00" from="80347016#7" to="-58413964#7"/>
    <trip id="367" depart="183.50" from="28193044" to="371194053#0"/>
    <trip id="368" depart="184.00" from="170590358#0" to="-207717151#0"/>
    <trip id="369" depart="184.50" from="1174493054#1" to="1169193226#1"/>
    <trip id="370" depart="185.00" from="37640546#9" to="657572429#9"/>
    <trip id="371" depart="185.50" from="1137802674#1" to="38027981#1"/>
    <trip id="372" depart="186.00" from="110801311#1" to="83813432#0"/>
    <trip id="373" depart="186.50" from="552708120#3" to="257171425#6"/>
    <trip id="374" depart="187.00" from="149422195#0" to="1136033656#2"/>
    <trip id="375" depart="187.50" from="112610147#4" to="881245048#1"/>
    <trip id="376" depart="188.00" from="133868204#0" to="22956122#2"/>
    <trip id="377" depart="188.50" from="929173037#1" to="37640549#1"/>
    <trip id="378" depart="189.00" from="23566893#0" to="134891254#3"/>
    <trip id="379" depart="189.50" from="-657572429#9" to="122301988#0"/>
    <trip id="380" depart="190.00" from="435787896#2" to="36903944#2"/>
    <trip id="381" depart="190.50" from="43685240#1" to="-81124948#0"/>
    <trip id="382" depart="191.00" from="243278285#0" to="817232516#0"/>
    <trip id="383" depart="191.50" from="149023979#1" to="38081504"/>
    <trip id="384" depart="192.00" from="-36932293" to="881905846#10"/>
    <trip id="385" depart="192.50" from="323978915#8" to="106255758#2"/>
    <trip id="386" depart="193.00" from="-43205336#3" to="257171430#2"/>
    <trip id="387" depart="193.50" from="24615583#2" to="-22908661#1"/>
    <trip id="388" depart="194.00" from="95685945#0" to="80877381#5"/>
    <trip id="389" depart="194.50" from="149864358#2" to="-329301857#0"/>
    <trip id="390" depart="195.00" from="572748493#0" to="191381259"/>
    <trip id="391" depart="195.50" from="38306581#3" to="220847829#1"/>
    <trip id="392" depart="196.00" from="108637176#0" to="58770836"/>
    <trip id="393" depart="196.50" from="893901255" to="106568791#2"/>
    <trip id="394" depart="197.00" from="24573930#5" to="132527909#3"/>
    <trip id="395" depart="197.50" from="81082987#0" to="220847824#0"/>
    <trip id="396" depart="198.00" from="676754190#1" to="666707219#7"/>
    <trip id="397" depart="198.50" from="108722025#8" to="502438902#5"/>
    <trip id="398" depart="199.00" from="134417913#6" to="825122898#1"/>
    <trip id="399" depart="199.50" from="192217483#1" to="572748494#3"/>
</routes>
