<routes>
  <!-- Define el tipo de vehículo -->
  <vType id="car" accel="0.8" decel="4.5" sigma="1.0" length="4" minGap="2.5" maxSpeed="1.0" guiShape="passenger" />
  
  <!-- Define la ruta del vehículo con las dos aristas especificadas -->
  <route id="1" edges="2/1to1/1 1/1to0/1"/>
  
  <!-- Define el vehículo y su ruta -->
  <vehicle id="0" type="car" route="1" depart="1">
  </vehicle>
</routes>
