<?xml version="1.0" encoding="UTF-8"?>

<!-- generated on 2022-11-02 15:11:54 by Eclipse SUMO duarouter Version 1.11.0
<configuration xmlns:xsi="http://www.w3.org/2001/XMLSchema-instance" xsi:noNamespaceSchemaLocation="http://sumo.dlr.de/xsd/duarouterConfiguration.xsd">

    <input>
        <net-file value="heterogeneous.net.xml"/>
        <route-files value="heterogeneous.trips.xml"/>
    </input>

    <output>
        <output-file value="heterogeneous.rou.xml"/>
        <alternatives-output value="heterogeneous.rou.alt.xml"/>
    </output>

    <report>
        <ignore-errors value="true"/>
    </report>

</configuration>
-->

<routes xmlns:xsi="http://www.w3.org/2001/XMLSchema-instance" xsi:noNamespaceSchemaLocation="http://sumo.dlr.de/xsd/routes_file.xsd">
    <vehicle id="0" depart="0.00">
        <routeDistribution last="0">
            <route cost="102.30" probability="1.00000000" edges="423890808#5 423890808#6 423890808#7 423890808#8 23572506#0 23572506#1 23572506#2 11103146#1 11103146#2 11103146#3 218097340#0 218097340#1 241924349#1 241924349#2 241924352 241927848 241927855#1 398715613#0 398715613#2 444159755#0 444159755#1 43760306 398715614#1 46827290 7990966#0 7990966#1 7990966#2 -11499089#3"/>
        </routeDistribution>
    </vehicle>
    <vehicle id="1" depart="1.00">
        <routeDistribution last="0">
            <route cost="117.75" probability="1.00000000" edges="131553938#0 131553938#1 131553938#2 131553938#3 44536985 43760355 969583080 4856374#0 4856374#1 4856374#3 242549905 222649412#0 222649412#1 498251030 420954799 1036128249#0 1036128249#2 1036128249#3 11103084#0 11103493 311203101 11103166#0 11481147#0 11481147#1 25660522#0 25660522#1 25660522#2 11481005#1"/>
        </routeDistribution>
    </vehicle>
    <vehicle id="2" depart="2.00">
        <routeDistribution last="0">
            <route cost="7.49" probability="1.00000000" edges="511241906 511230116 44536985 43760355"/>
        </routeDistribution>
    </vehicle>
    <vehicle id="3" depart="3.00">
        <routeDistribution last="0">
            <route cost="86.72" probability="1.00000000" edges="8067293#2 8067293#3 8050623 1014474058#0 1014474058#1 4339394 910599750 354129337#1 187652497 511241906 511230116 44536985 43760355 969583080 4856374#0 4856374#1 4856374#3 242549905 222649412#0 222649412#1 43760391#0 43760391#2 -43760391#2 -43760391#1 -222649412#1 -222649412#0 -242549905 -4856374#3 -4856374#2 -4856374#0"/>
        </routeDistribution>
    </vehicle>
    <vehicle id="4" depart="4.00">
        <routeDistribution last="0">
            <route cost="129.40" probability="1.00000000" edges="255825112#1 255825113#0 255825113#1 255825113#2 43760306 398715614#1 241927851#1 241924367#0 241924367#2 241924367#3 303407857#0 303407857#1 303407857#2 400902432#0 400902432#2 400902432#3 258268152#0 258268152#2 258268152#3 258268152#4 4339395#0 4339395#2 8050631#0 8050624#4 8067293#3 8050623 15591956#0 15591956#1 15591956#2 -15591956#2 -15591956#1"/>
        </routeDistribution>
    </vehicle>
    <vehicle id="5" depart="5.00">
        <routeDistribution last="0">
            <route cost="56.03" probability="1.00000000" edges="11104324#2 11104324#3 11104324#4 241927855#1 398715613#0 398715613#2 444159755#0 286652035#0 31783746#0 31783746#1"/>
        </routeDistribution>
    </vehicle>
    <vehicle id="6" depart="6.00">
        <routeDistribution last="0">
            <route cost="81.01" probability="1.00000000" edges="-11499089#0 353271251#3 353271251#4 74017969#0 46827290 398715615 46827291#0 398715612 11102141#2 11104285#1 11104285#2"/>
        </routeDistribution>
    </vehicle>
    <vehicle id="7" depart="7.00">
        <routeDistribution last="0">
            <route cost="114.55" probability="1.00000000" edges="4290771#0 43760338#1 43760338#2 335720388#0 335720388#1 9934406#0 9934406#1 9934406#3 303407857#0 303407857#1 303407857#2 400902432#0 400902432#2 400902432#3 9935022#1 9935022#2 9935104#0 9935104#1 8050618#0 8050618#1 8050618#2 35341532#1"/>
        </routeDistribution>
    </vehicle>
    <vehicle id="8" depart="8.00">
        <routeDistribution last="0">
            <route cost="64.86" probability="1.00000000" edges="11104324#3 11104324#4 241927855#1 398715613#0 398715613#2 444159755#0 444159755#1 43760306 398715614#1 241927851#1 241924367#0 241924367#2 241924367#3 303407857#0 303407857#1 303407857#2 400902434#1 400902434#2"/>
        </routeDistribution>
    </vehicle>
    <vehicle id="9" depart="9.00">
        <routeDistribution last="0">
            <route cost="59.32" probability="1.00000000" edges="7990964#4 -218096244#2 -218096244#1 28852100#1 11481152#0 11481152#1 11481152#2 11103084#0 11103108 662941050 11103146#0 -11103146#0"/>
        </routeDistribution>
    </vehicle>
    <vehicle id="10" depart="10.00">
        <routeDistribution last="0">
            <route cost="62.50" probability="1.00000000" edges="7990964#2 7990964#3 7990964#4 7990964#5 43760340#0 43760340#1 43760340#2 43760355 969583079 969583077 4319090 769421058 45695098#1"/>
        </routeDistribution>
    </vehicle>
    <vehicle id="11" depart="11.00">
        <routeDistribution last="0">
            <route cost="141.54" probability="1.00000000" edges="241922439#0 241937051#0 241937051#1 241924349#1 241924349#2 241924352 241927848 241927855#1 398715613#0 398715613#2 444159755#0 444159755#1 43760306 398715614#1 241927851#1 241924367#0 241924367#2 241924367#3 303407857#0 303407857#1 303407857#2 400902432#0 400902432#2 400902432#3 258268152#0 258268152#2 258268152#3 258268152#4 4339395#0 4339395#2 8050631#0 8050624#4 8067293#3 8050623 1014474058#0 1014474058#1"/>
        </routeDistribution>
    </vehicle>
    <vehicle id="12" depart="12.00">
        <routeDistribution last="0">
            <route cost="79.83" probability="1.00000000" edges="9938481#1 -65084620 24853480 9938469 9935276#3 9935276#4 9934418#0 9934418#1 109238199#1 408914181#0 408914181#1 241924351#0 241924351#2 241924351#3"/>
        </routeDistribution>
    </vehicle>
    <vehicle id="13" depart="13.00">
        <routeDistribution last="0">
            <route cost="57.97" probability="1.00000000" edges="-4339395#2 4339395#2 65084624#0 65084625 62723691#0 65084620 65084621 65084616#1 1014474054 10642173#0 -10642173#1 -588981938 -65084616#1 -65084621 -65084620 -62723691#1"/>
        </routeDistribution>
    </vehicle>
    <vehicle id="14" depart="14.00">
        <routeDistribution last="0">
            <route cost="159.53" probability="1.00000000" edges="8050581 30755111#2 15591942#1 35341532#1 35341532#2 8050629#0 8050629#1 62723691#0 24853480 9938469 9935276#3 9935276#4 9934418#0 9934418#1 109238199#1 -303407850#3 -303407850#1 -9934406#4 -9934406#1 -9934406#0 335720388#2 335720388#3 398715614#1 46827290 398715615 46827291#0 398715612 7990964#0 7990964#1 11380998#1 11380998#2 423236497#0"/>
        </routeDistribution>
    </vehicle>
    <vehicle id="15" depart="15.00">
        <routeDistribution last="0">
            <route cost="44.62" probability="1.00000000" edges="7990964#3 7990964#4 7990964#5 43760340#0 43760340#1 43760340#2 43760355 969583079 969583077 511230115#0 511249856"/>
        </routeDistribution>
    </vehicle>
    <vehicle id="16" depart="16.00">
        <routeDistribution last="0">
            <route cost="91.16" probability="1.00000000" edges="322323760#0 241924368#0 241924368#2 65084623#0 9939682 56323510 241924351#2 241924351#3 241927856#0 -9935276#13 -9935276#11 -9935276#10 -9935276#8 9938632#0 9938632#1 9938643#1"/>
        </routeDistribution>
    </vehicle>
    <vehicle id="17" depart="17.00">
        <routeDistribution last="0">
            <route cost="133.65" probability="1.00000000" edges="241927850 241927852 241924352 241927848 241927855#1 398715613#0 398715613#2 444159755#0 444159755#1 43760306 398715614#1 241927851#1 241924367#0 241924367#2 241924367#3 303407857#0 303407857#1 303407857#2 400902432#0 400902432#2 400902432#3 9935022#1 9935022#2 9935104#0 9935104#1 8050618#0 8050618#1 8050618#2 35341532#1 35341532#2 35341532#3 35341532#4 35341532#5"/>
        </routeDistribution>
    </vehicle>
    <vehicle id="18" depart="18.00">
        <routeDistribution last="0">
            <route cost="129.79" probability="1.00000000" edges="8039238#4 24853451 8067293#2 8067293#3 8050623 1014474058#0 1014474058#1 4339394 910599750 354129337#1 187652495 258268153#0 258268153#1 258268153#2 258268153#3 551051373 43760338#0 4290771#1 4290771#2 4290771#3 4290771#4 444159755#1 43760306 398715614#1 46827290 398715615 46827291#0 398715612 11102141#2 241927850 241927852 423890808#1 423890808#2 423890808#3 423890808#4 423890808#5"/>
        </routeDistribution>
    </vehicle>
    <vehicle id="19" depart="19.00">
        <routeDistribution last="0">
            <route cost="96.31" probability="1.00000000" edges="8050624#1 8050629#1 62723691#0 24853480 9938469 9935276#3 9935276#4 9934418#0 9934418#1 109238199#1 -303407850#3 -303407850#1 -9934406#4 -9934406#1 -9934406#0 335720388#2 335720388#3 398715614#1 46827290 398715615"/>
        </routeDistribution>
    </vehicle>
    <vehicle id="20" depart="20.00">
        <routeDistribution last="0">
            <route cost="47.34" probability="1.00000000" edges="444159755#1 43760306 398715614#1 46827290 398715615 46827291#0 398715612 7990964#0 7990964#1 7990964#2 7990964#3 7990964#4 -218096244#2"/>
        </routeDistribution>
    </vehicle>
    <vehicle id="21" depart="21.00">
        <routeDistribution last="0">
            <route cost="80.94" probability="1.00000000" edges="11380918#2 241924352 241927848 241927855#1 398715613#0 398715613#2 444159755#0 444159755#1 43760306 398715614#1 241927851#1 241924367#0 241924367#2 241924367#3 303407857#0 303407857#1 303407857#2 -161905017#3 -161905017#1 -161905017#0 161905017#0 161905017#1 161905017#2"/>
        </routeDistribution>
    </vehicle>
    <vehicle id="22" depart="22.00">
        <routeDistribution last="0">
            <route cost="66.98" probability="1.00000000" edges="-420954799 -498251030 498251030 420954799 1036128249#0 1036128249#2 1036128249#3 11103084#0 11481161#0 11481161#2 11481161#3 11481161#4 11481161#5 28852100#1 11481152#0 11481152#1"/>
        </routeDistribution>
    </vehicle>
    <vehicle id="23" depart="23.00">
        <routeDistribution last="0">
            <route cost="61.03" probability="1.00000000" edges="-4856374#0 969583078 969583077 511230115#0 511249856 511249852 511241908 4339393#0 4339393#2 198822632#0 4339395#0 4339395#2 8050631#0 8050624#4 8067293#3 8050623 15591956#0 15591956#1 15591956#2"/>
        </routeDistribution>
    </vehicle>
    <vehicle id="24" depart="24.00">
        <routeDistribution last="0">
            <route cost="35.68" probability="1.00000000" edges="423890808#3 423890808#4 -423236497#2 -423236497#1 -423236497#0 11104324#3 11104324#4 241927850 241927852"/>
        </routeDistribution>
    </vehicle>
    <vehicle id="26" depart="26.00">
        <routeDistribution last="0">
            <route cost="76.60" probability="1.00000000" edges="11499089#2 -11499089#3 -11499089#1 -11499089#0 353271251#3 353271251#4 241924367#0 241924367#2 241924367#3 303407857#0 303407857#1 303407857#2 400902432#0 400902432#2 400902432#3 9935022#1 9935022#2 9935104#0"/>
        </routeDistribution>
    </vehicle>
    <vehicle id="27" depart="27.00">
        <routeDistribution last="0">
            <route cost="90.94" probability="1.00000000" edges="4290771#0 4290771#1 4290771#2 4290771#3 4290771#4 444159755#1 43760306 398715614#1 46827290 398715615 46827291#0 398715612 7990964#0 7990964#1 11380998#1 11380998#2 423236497#0 423236497#1 423236497#2"/>
        </routeDistribution>
    </vehicle>
    <vehicle id="28" depart="28.00">
        <routeDistribution last="0">
            <route cost="30.74" probability="1.00000000" edges="1014474058#0 1014474058#1 4339394 910599750 354129337#1 187652497 511241906 511230116 44536985 43760355 969583079 969583077 511230115#0 511249856"/>
        </routeDistribution>
    </vehicle>
    <vehicle id="29" depart="29.00">
        <routeDistribution last="0">
            <route cost="36.30" probability="1.00000000" edges="-9935276#8 9935276#7 9935276#9 9935276#11 9935276#12 246703510"/>
        </routeDistribution>
    </vehicle>
    <vehicle id="30" depart="30.00">
        <routeDistribution last="0">
            <route cost="89.52" probability="1.00000000" edges="9938694 9938632#1 9938632#2 -588981938 -65084616#1 -65084621 -65084620 -62723691#1 -65084625 -65084624#1 -4339395#2 -4339395#1 4339394 910599750 354129337#1 187652497 511241906 511230116 44536985 43760355 969583079 969583077 511230115#0 511249856 4290966#0"/>
        </routeDistribution>
    </vehicle>
    <vehicle id="31" depart="31.00">
        <routeDistribution last="0">
            <route cost="60.17" probability="1.00000000" edges="35341525#3 511241908 511241907 255825109 258268153#0 258268153#1 258268153#2 258268153#3 551051373 43760338#0 4290771#1 4290771#2 4290771#3 4290771#4 444159755#1"/>
        </routeDistribution>
    </vehicle>
    <vehicle id="32" depart="32.00">
        <routeDistribution last="0">
            <route cost="69.60" probability="1.00000000" edges="8039336#0 8067286 303409653 303409654#0 303409654#1 9938622#0 9938622#1 299869382 9935276#4 9935276#7 9935276#9 9935276#11 9935276#12 74017974"/>
        </routeDistribution>
    </vehicle>
    <vehicle id="33" depart="33.00">
        <routeDistribution last="0">
            <route cost="131.89" probability="1.00000000" edges="11380918#2 241924352 241927848 241927855#1 398715613#0 398715613#2 444159755#0 444159755#1 43760306 398715614#1 241927851#1 241924367#0 241924367#2 241924367#3 303407857#0 303407857#1 303407857#2 400902432#0 400902432#2 400902432#3 258268152#0 258268152#2 258268152#3 258268152#4 4339395#0 4339395#2 8050631#0 8050624#4 8067293#3 8050623 15591956#0 15591956#1 15591956#2 -15591956#2"/>
        </routeDistribution>
    </vehicle>
    <vehicle id="34" depart="34.00">
        <routeDistribution last="0">
            <route cost="79.17" probability="1.00000000" edges="199577461 335720388#0 335720388#1 335720388#2 335720388#3 398715614#1 46827290 398715615 286652036#0 31783748#0 31783748#1 31783748#2 5780733 131553945"/>
        </routeDistribution>
    </vehicle>
    <vehicle id="35" depart="35.00">
        <routeDistribution last="0">
            <route cost="119.28" probability="1.00000000" edges="11103536#1 11505851#0 11505851#1 311203101 11103108 662941050 11103146#0 11103146#1 11103146#2 11103146#3 218097340#0 218097340#1 241924349#1 241924349#2 241924352 241927848 241927855#1 398715613#0 398715613#2 444159755#0 444159755#1 43760306 398715614#1 241927851#1 241924358#0 241927857#0 241924351#0 241924351#2 241924351#3 241927856#0 -9935276#13 -9935276#11 9935276#11"/>
        </routeDistribution>
    </vehicle>
    <vehicle id="36" depart="36.00">
        <routeDistribution last="0">
            <route cost="116.15" probability="1.00000000" edges="8050631#1 8050631#2 8039238#2 8039238#3 8039238#4 24853451 8067293#2 8067293#3 8050623 1014474058#0 1014474058#1 4339394 910599750 354129337#1 187652497 511241906 511230116 44536985 43760355 969583080 4856374#0 4856374#1 4856374#3 242549905 222649412#0 222649412#1 43760391#0 43760391#2 222649407#0 222649407#1"/>
        </routeDistribution>
    </vehicle>
    <vehicle id="37" depart="37.00">
        <routeDistribution last="0">
            <route cost="107.32" probability="1.00000000" edges="4290771#3 4290771#4 444159755#1 43760306 398715614#1 241927851#1 241924367#0 241924367#2 241924367#3 303407857#0 303407857#1 303407857#2 400902432#0 400902432#2 400902432#3 258268152#0 258268152#2 258268152#3 258268152#4 4339395#0 4339395#2 8050631#0 8050631#1 8050631#2 8039238#2 8039238#3 8039238#4 24853451"/>
        </routeDistribution>
    </vehicle>
    <vehicle id="38" depart="38.00">
        <routeDistribution last="0">
            <route cost="122.04" probability="1.00000000" edges="9934406#0 9934406#1 9934406#3 303407857#0 303407857#1 303407857#2 400902432#0 400902432#2 400902432#3 258268152#0 258268152#2 258268152#3 258268152#4 4339394 910599750 354129337#1 187652497 511241906 511230116 44536985 43760355 969583080 4856374#0 4856374#1 4856374#3 242549905 222649412#0 222649412#1 43760391#0 43760391#2 11480909 28852365 28852323"/>
        </routeDistribution>
    </vehicle>
    <vehicle id="39" depart="39.00">
        <routeDistribution last="0">
            <route cost="91.06" probability="1.00000000" edges="11499089#1 11499089#2 -11499089#3 -11499089#1 -11499089#0 353271251#3 353271251#4 74017969#0 46827290 398715615 46827291#0 398715612 11102141#2 241927850 241927852 241924357#0 -218097340#1 -218097340#0 11489061"/>
        </routeDistribution>
    </vehicle>
    <vehicle id="40" depart="40.00">
        <routeDistribution last="0">
            <route cost="131.42" probability="1.00000000" edges="35341527#0 35341527#1 24853451 8067293#2 8067293#3 8050623 1014474058#0 1014474058#1 4339394 910599750 354129337#1 187652497 511241906 511230116 44536985 43760355 969583080 4856374#0 4856374#1 4856374#3 242549905 222649412#0 222649412#1 498251030 420954799 1036128249#0 1036128249#2 1036128249#3 11103084#0 11481161#0 11481161#2 11481161#3 11481161#4 11481161#5 218096244#1 218096244#2 7990964#5 43760340#0 7704270#0 131553938#1"/>
        </routeDistribution>
    </vehicle>
    <vehicle id="41" depart="41.00">
        <routeDistribution last="0">
            <route cost="60.67" probability="1.00000000" edges="389561960#1 -9935276#8 -9935276#5 -9935276#3 -9935276#0 9935104#0 9935104#1 -65084624#1 -4339395#2 -4339395#1 4339394 910599750"/>
        </routeDistribution>
    </vehicle>
    <vehicle id="42" depart="42.00">
        <routeDistribution last="0">
            <route cost="32.77" probability="1.00000000" edges="24704310#0 11480909"/>
        </routeDistribution>
    </vehicle>
    <vehicle id="43" depart="43.00">
        <routeDistribution last="0">
            <route cost="98.66" probability="1.00000000" edges="9938789#1 -65084623#2 9939682 56323510 322323760#0 241924366#0 241924366#2 74017969#0 46827290 398715615 286652036#0 31783748#0 31783748#1"/>
        </routeDistribution>
    </vehicle>
    <vehicle id="44" depart="44.00">
        <routeDistribution last="0">
            <route cost="96.72" probability="1.00000000" edges="-4339395#1 4339394 910599750 354129337#1 187652497 511241906 511230116 44536985 43760355 969583080 4856374#0 4856374#1 4856374#3 242549905 222649412#0 222649412#1 498251030 420954799 1036128249#0 1036128249#2 1036128249#3 11103084#0 11103108 662941050 11103146#0 11103146#1 11103146#2 11103146#3 218097340#0 -218097340#0"/>
        </routeDistribution>
    </vehicle>
    <vehicle id="46" depart="46.00">
        <routeDistribution last="0">
            <route cost="59.38" probability="1.00000000" edges="7704270#2 7704270#3 258268153#2 258268153#3 266013226#0 266013226#1 199577461 9934416#1 161905017#0 161905017#1 161905017#2 400902432#0 400902432#2 400902432#3 258268152#0 258268152#2 258268152#3"/>
        </routeDistribution>
    </vehicle>
    <vehicle id="47" depart="47.00">
        <routeDistribution last="0">
            <route cost="105.67" probability="1.00000000" edges="-222649412#1 -222649412#0 -242549905 -4856374#3 -4856374#2 -4856374#0 4856374#0 4856374#1 4856374#3 242549905 222649412#0 222649412#1 498251030 420954799 1036128249#0 1036128249#2 1036128249#3 11103084#0 11103108 662941050 11103146#0 11103146#1 11103146#2 11103146#3 218097340#0 218097340#1 241924346#0 246703511"/>
        </routeDistribution>
    </vehicle>
    <vehicle id="48" depart="48.00">
        <routeDistribution last="0">
            <route cost="103.22" probability="1.00000000" edges="9938789#1 -65084623#2 9939682 56323510 241924351#2 241924351#3 241927856#0 -9935276#13 -9935276#11 -303407850#6 -303407850#3 -303407850#1 -9934406#4 -9934406#1 -9934406#0 335720388#2 335720388#3"/>
        </routeDistribution>
    </vehicle>
    <vehicle id="49" depart="49.00">
        <routeDistribution last="0">
            <route cost="66.68" probability="1.00000000" edges="9938643#1 9938686#1 9938694 9938632#1 9938632#2 -588981938 -65084616#1 -65084621 -65084620 8039246#0 8039246#2 8050624#0"/>
        </routeDistribution>
    </vehicle>
    <vehicle id="50" depart="50.00">
        <routeDistribution last="0">
            <route cost="69.65" probability="1.00000000" edges="-11103146#0 11103115#0 11103493 311203101 11103166#0 11103166#2 -1036128249#3 -1036128249#2 -1036128249#0 -420954799 -498251030 -222649412#1 -222649412#0 -242549905 -4856374#3 -4856374#2 -4856374#0 969583078 969583077 511230115#0 511249856 511249852 511241908 511241907 511241906"/>
        </routeDistribution>
    </vehicle>
    <vehicle id="51" depart="51.00">
        <routeDistribution last="0">
            <route cost="118.76" probability="1.00000000" edges="43760118#1 9939682 56323510 241924351#2 241924351#3 241927856#0 -9935276#13 -9935276#11 -9935276#10 -9935276#8 -9935276#5 -9935276#3 -9935276#0 9935104#0 9935104#1 8050618#0 8050624#3 8050624#4 8067293#3 8067293#4 -8050609 35341525#0"/>
        </routeDistribution>
    </vehicle>
    <vehicle id="52" depart="52.00">
        <routeDistribution last="0">
            <route cost="108.70" probability="1.00000000" edges="11499089#2 -11499089#3 -11499089#1 -11499089#0 353271251#3 353271251#4 241924367#0 241924367#2 241924367#3 303407857#0 303407857#1 303407857#2 400902432#0 400902432#2 400902432#3 258268152#0 258268152#2 258268152#3 258268152#4 4339394 910599750 354129337#1 187652497 511241906 511230116 44536985 43760355 969583079 969583077 511230115#0 511249856 4290966#0"/>
        </routeDistribution>
    </vehicle>
    <vehicle id="53" depart="53.00">
        <routeDistribution last="0">
            <route cost="67.65" probability="1.00000000" edges="-588981938 -65084616#1 -65084621 -65084620 -62723691#1 -65084625 -65084624#1 -4339395#2 -4339395#1 4339394 910599750 354129337#1 187652495 258268153#0 258268153#1 258268153#2 258268153#3 266013226#0 266013226#1"/>
        </routeDistribution>
    </vehicle>
    <vehicle id="54" depart="54.00">
        <routeDistribution last="0">
            <route cost="58.13" probability="1.00000000" edges="266013226#1 199577461 9934416#1 161905017#0 161905017#1 161905017#2 400902434#1 400902434#2 400902434#3 9934417#0 -9935276#5 -299869382 9938481#0 9938667#0 9938469"/>
        </routeDistribution>
    </vehicle>
    <vehicle id="55" depart="55.00">
        <routeDistribution last="0">
            <route cost="146.25" probability="1.00000000" edges="8050631#1 8050631#2 8039238#2 8039238#3 8039238#4 24853451 8067293#2 8067293#3 8050623 1014474058#0 1014474058#1 4339394 910599750 354129337#1 187652497 511241906 511230116 44536985 43760355 969583080 4856374#0 4856374#1 4856374#3 242549905 222649412#0 222649412#1 498251030 420954799 1036128249#0 1036128249#2 1036128249#3 11103084#0 11481161#0 11481161#2 11481161#3 11481161#4 11481161#5 218096244#1 218096244#2 7990964#5 43760340#0 7704270#0 131553938#1"/>
        </routeDistribution>
    </vehicle>
    <vehicle id="56" depart="56.00">
        <routeDistribution last="0">
            <route cost="116.02" probability="1.00000000" edges="303409653 303409654#0 303409654#1 -65084621 -65084620 -62723691#1 -65084625 -65084624#1 -4339395#2 -4339395#1 4339394 910599750 354129337#1 187652497 511241906 511230116 44536985 43760355 969583080 4856374#0 4856374#1 4856374#3 242549905 222649412#0 222649412#1 498251030 420954799 1036128249#0 1036128249#2 1036128249#3 11103084#0 11103108 662941050 11103115#0"/>
        </routeDistribution>
    </vehicle>
    <vehicle id="57" depart="57.00">
        <routeDistribution last="0">
            <route cost="113.76" probability="1.00000000" edges="98338861 98338859#1 98338859#2 28852318#2 -498251030 -222649412#1 -222649412#0 -242549905 -4856374#3 -4856374#2 -4856374#0 969583078 969583077 511230115#0 511249856 511249852 511241908 4339393#0 4339393#2 198822632#0 4339395#0 4339395#2 65084624#0 8050618#0 8050618#1 8050618#2 35341532#1 35341532#2 8050629#0"/>
        </routeDistribution>
    </vehicle>
    <vehicle id="58" depart="58.00">
        <routeDistribution last="0">
            <route cost="77.33" probability="1.00000000" edges="15591956#4 -15591956#2 -15591956#1 -15591956#0 1014474058#0 1014474058#1 4339394 910599750 354129337#1 187652495 258268153#0 258268153#1 258268153#2 258268153#3 551051373 43760338#0 4290771#1 4290771#2 4290771#3 4290771#4"/>
        </routeDistribution>
    </vehicle>
    <vehicle id="59" depart="59.00">
        <routeDistribution last="0">
            <route cost="32.77" probability="1.00000000" edges="400902432#3 9935022#1 9935022#2 9935104#0 9935104#1 65084625 1014474056"/>
        </routeDistribution>
    </vehicle>
    <vehicle id="62" depart="62.00">
        <routeDistribution last="0">
            <route cost="147.49" probability="1.00000000" edges="-1014474052#1 -588981938 -65084616#1 9938622#0 9938622#1 299869382 9935276#4 9934418#0 9934418#1 109238199#1 -303407850#3 -303407850#1 -9934406#4 -9934406#1 -9934406#0 335720388#2 335720388#3 398715614#1 46827290 398715615 46827291#0 398715612 7990964#0 7990964#1 7990964#2 7990964#3 321225331#0 321225331#1 321225331#2 423890808#8 23572506#0 23572506#1 23572506#2"/>
        </routeDistribution>
    </vehicle>
    <vehicle id="63" depart="63.00">
        <routeDistribution last="0">
            <route cost="112.61" probability="1.00000000" edges="-11380998#1 7990964#2 7990964#3 7990964#4 7990964#5 43760340#0 7704270#0 7704270#1 7704270#2 7704270#3 258268153#2 258268153#3 266013226#0 266013226#1 199577461 9934416#1 161905017#0 161905017#1 161905017#2 400902434#1 400902434#2 400902434#3 9934417#0 9934418#0 9934418#1"/>
        </routeDistribution>
    </vehicle>
    <vehicle id="64" depart="64.00">
        <routeDistribution last="0">
            <route cost="60.02" probability="1.00000000" edges="8050631#2 8039238#2 8039238#3 8039238#4 24853451 8067293#2 8067293#3 8050623 1014474058#0 1014474058#1 4339395#0 4339395#2 65084624#0 65084625 62723691#0 8039246#0 8039246#2 8039246#3 8039246#4"/>
        </routeDistribution>
    </vehicle>
    <vehicle id="65" depart="65.00">
        <routeDistribution last="0">
            <route cost="59.10" probability="1.00000000" edges="161905020 131553938#3 44536985 43760355 969583080 4856374#0 4856374#1 4856374#3 242549905 222649412#0 222649412#1 43760391#0 43760391#2 -43760391#2 -43760391#1 -222649412#1 -222649412#0 -242549905"/>
        </routeDistribution>
    </vehicle>
    <vehicle id="66" depart="66.00">
        <routeDistribution last="0">
            <route cost="71.37" probability="1.00000000" edges="8050631#2 8039238#2 8039238#3 8039238#4 24853451 8067293#2 8067293#3 8050623 1014474058#0 1014474058#1 4339395#0 4339395#2 65084624#0 65084625 62723691#0 24853480 9938469 9935276#3"/>
        </routeDistribution>
    </vehicle>
    <vehicle id="67" depart="67.00">
        <routeDistribution last="0">
            <route cost="130.27" probability="1.00000000" edges="-423236497#2 -423236497#1 -423236497#0 11104324#3 11104324#4 241927855#1 398715613#0 398715613#2 444159755#0 444159755#1 43760306 398715614#1 241927851#1 241924367#0 241924367#2 241924367#3 303407857#0 303407857#1 303407857#2 400902432#0 400902432#2 400902432#3 9935022#1 9935022#2 9935104#0 9935104#1 65084625 62723691#0 8039246#0 8039246#2 8039246#3 8039246#4 8039336#0 8067286 303409653 303409654#0"/>
        </routeDistribution>
    </vehicle>
    <vehicle id="68" depart="68.00">
        <routeDistribution last="0">
            <route cost="60.88" probability="1.00000000" edges="-299869382 299869382 9935276#4 9934418#0 9934418#1 109238199#1 408914181#0 408914181#1 241924368#0 241924368#2 65084623#0"/>
        </routeDistribution>
    </vehicle>
    <vehicle id="69" depart="69.00">
        <routeDistribution last="0">
            <route cost="53.73" probability="1.00000000" edges="65084616#1 1014474054 10642173#0 -10642173#1 -588981938 -65084616#1 9938622#0 9938622#1 299869382 -9935276#3 -9935276#0 -9935022#2 -9935022#1"/>
        </routeDistribution>
    </vehicle>
    <vehicle id="70" depart="70.00">
        <routeDistribution last="0">
            <route cost="100.61" probability="1.00000000" edges="28852318#2 -498251030 -222649412#1 -222649412#0 -242549905 -4856374#3 -4856374#2 -4856374#0 969583078 969583077 511230115#0 511249856 511249852 511241908 4339393#0 4339393#2 198822632#0 4339395#0 4339395#2 65084624#0 8050618#0 8050618#1 8050618#2 35341532#1 35341532#2 35341532#3 35341532#4"/>
        </routeDistribution>
    </vehicle>
    <vehicle id="71" depart="71.00">
        <routeDistribution last="0">
            <route cost="112.74" probability="1.00000000" edges="11499089#1 11499089#2 -11499089#3 -11499089#1 -11499089#0 353271251#3 353271251#4 241924367#0 241924367#2 241924367#3 303407857#0 303407857#1 303407857#2 400902432#0 400902432#2 400902432#3 9935022#1 9935022#2 9935104#0 9935104#1 65084625 62723691#0 8039246#0 8039246#2 8050624#0 8050624#1 8050629#1"/>
        </routeDistribution>
    </vehicle>
    <vehicle id="73" depart="73.00">
        <routeDistribution last="0">
            <route cost="88.07" probability="1.00000000" edges="335720388#1 9934406#0 9934406#1 9934406#3 303407857#0 303407857#1 303407857#2 400902432#0 400902432#2 400902432#3 258268152#0 258268152#2 258268152#3 258268152#4 4339394 910599750 354129337#1 187652497 511241906 511230116 44536985 43760355 969583079 969583077 511230115#0 511249856"/>
        </routeDistribution>
    </vehicle>
    <vehicle id="74" depart="74.00">
        <routeDistribution last="0">