<?xml version="1.0" encoding="UTF-8"?>

<!-- generated on 2022-11-02 15:11:13 by Eclipse SUMO netconvert Version 1.11.0
<configuration xmlns:xsi="http://www.w3.org/2001/XMLSchema-instance" xsi:noNamespaceSchemaLocation="http://sumo.dlr.de/xsd/netconvertConfiguration.xsd">

    <input>
        <osm-files value="map.osm"/>
    </input>

    <output>
        <output-file value="heterogeneous.net.xml"/>
    </output>

    <projection>
        <proj.utm value="true"/>
    </projection>

    <processing>
        <geometry.remove value="true"/>
        <roundabouts.guess value="true"/>
    </processing>

    <tls_building>
        <tls.discard-simple value="true"/>
        <tls.join value="true"/>
        <tls.guess-signals value="true"/>
    </tls_building>

    <junctions>
        <junctions.join value="true"/>
    </junctions>

    <report>
        <aggregate-warnings value="5"/>
    </report>

</configuration>
-->

<net version="1.9" junctionCornerDetail="5" limitTurnSpeed="5.50" xmlns:xsi="http://www.w3.org/2001/XMLSchema-instance" xsi:noNamespaceSchemaLocation="http://sumo.dlr.de/xsd/net_file.xsd">

    <location netOffset="-439410.76,-4477519.75" convBoundary="0.00,0.00,4053.62,6102.92" origBoundary="-3.714940,40.446257,-3.667014,40.501227" projParameter="+proj=utm +zone=30 +ellps=WGS84 +datum=WGS84 +units=m +no_defs"/>

    <type id="highway.bridleway" priority="1" numLanes="1" speed="2.78" allow="pedestrian" oneway="1" width="2.00"/>
    <type id="highway.bus_guideway" priority="1" numLanes="1" speed="27.78" allow="bus" oneway="1"/>
    <type id="highway.cycleway" priority="1" numLanes="1" speed="8.33" allow="bicycle" oneway="0" width="1.00"/>
    <type id="highway.footway" priority="1" numLanes="1" speed="2.78" allow="pedestrian" oneway="1" width="2.00"/>
    <type id="highway.ford" priority="1" numLanes="1" speed="2.78" allow="army" oneway="0"/>
    <type id="highway.living_street" priority="2" numLanes="1" speed="2.78" disallow="tram rail_urban rail rail_electric rail_fast ship" oneway="0"/>
    <type id="highway.motorway" priority="14" numLanes="2" speed="39.44" allow="private emergency authority army vip passenger hov taxi bus coach delivery truck trailer motorcycle evehicle custom1 custom2" oneway="1"/>
    <type id="highway.motorway_link" priority="9" numLanes="1" speed="22.22" allow="private emergency authority army vip passenger hov taxi bus coach delivery truck trailer motorcycle evehicle custom1 custom2" oneway="1"/>
    <type id="highway.path" priority="1" numLanes="1" speed="2.78" allow="pedestrian bicycle" oneway="0" width="2.00"/>
    <type id="highway.pedestrian" priority="1" numLanes="1" speed="2.78" allow="pedestrian" oneway="1" width="2.00"/>
    <type id="highway.primary" priority="12" numLanes="2" speed="27.78" disallow="tram rail_urban rail rail_electric rail_fast ship" oneway="0"/>
    <type id="highway.primary_link" priority="7" numLanes="1" speed="22.22" disallow="tram rail_urban rail rail_electric rail_fast ship" oneway="0"/>
    <type id="highway.raceway" priority="15" numLanes="2" speed="83.33" allow="vip" oneway="0"/>
    <type id="highway.residential" priority="3" numLanes="1" speed="13.89" disallow="tram rail_urban rail rail_electric rail_fast ship" oneway="0"/>
    <type id="highway.secondary" priority="11" numLanes="1" speed="27.78" disallow="tram rail_urban rail rail_electric rail_fast ship" oneway="0"/>
    <type id="highway.secondary_link" priority="6" numLanes="1" speed="22.22" disallow="tram rail_urban rail rail_electric rail_fast ship" oneway="0"/>
    <type id="highway.service" priority="1" numLanes="1" speed="5.56" allow="pedestrian delivery bicycle" oneway="0"/>
    <type id="highway.stairs" priority="1" numLanes="1" speed="1.39" allow="pedestrian" oneway="1" width="2.00"/>
    <type id="highway.step" priority="1" numLanes="1" speed="1.39" allow="pedestrian" oneway="1" width="2.00"/>
    <type id="highway.steps" priority="1" numLanes="1" speed="1.39" allow="pedestrian" oneway="1" width="2.00"/>
    <type id="highway.tertiary" priority="10" numLanes="1" speed="22.22" disallow="tram rail_urban rail rail_electric rail_fast ship" oneway="0"/>
    <type id="highway.tertiary_link" priority="5" numLanes="1" speed="22.22" disallow="tram rail_urban rail rail_electric rail_fast ship" oneway="0"/>
    <type id="highway.track" priority="1" numLanes="1" speed="5.56" allow="pedestrian motorcycle moped bicycle" oneway="0"/>
    <type id="highway.trunk" priority="13" numLanes="2" speed="27.78" disallow="pedestrian bicycle tram rail_urban rail rail_electric rail_fast ship" oneway="0"/>
    <type id="highway.trunk_link" priority="8" numLanes="1" speed="22.22" disallow="pedestrian bicycle tram rail_urban rail rail_electric rail_fast ship" oneway="0"/>
    <type id="highway.unclassified" priority="4" numLanes="1" speed="13.89" disallow="tram rail_urban rail rail_electric rail_fast ship" oneway="0"/>
    <type id="highway.unsurfaced" priority="1" numLanes="1" speed="8.33" disallow="tram rail_urban rail rail_electric rail_fast ship" oneway="0"/>
    <type id="railway.highspeed" priority="21" numLanes="1" speed="69.44" allow="rail_fast" oneway="1"/>
    <type id="railway.light_rail" priority="19" numLanes="1" speed="27.78" allow="rail_urban" oneway="1"/>
    <type id="railway.preserved" priority="16" numLanes="1" speed="27.78" allow="rail" oneway="1"/>
    <type id="railway.rail" priority="20" numLanes="1" speed="44.44" allow="rail" oneway="1"/>
    <type id="railway.subway" priority="18" numLanes="1" speed="27.78" allow="rail_urban" oneway="1"/>
    <type id="railway.tram" priority="17" numLanes="1" speed="13.89" allow="tram" oneway="1"/>

    <edge id=":10019469307_0" function="internal">
        <lane id=":10019469307_0_0" index="0" allow="pedestrian delivery bicycle" speed="5.56" length="7.50" shape="2593.36,1486.69 2593.11,1485.19 2592.63,1482.82 2592.31,1480.54 2592.54,1479.30"/>
    </edge>
    <edge id=":10019469307_1" function="internal">
        <lane id=":10019469307_1_0" index="0" allow="pedestrian delivery bicycle" speed="3.69" length="2.84" shape="2593.36,1486.69 2593.86,1485.29 2594.56,1484.70 2594.99,1484.79"/>
    </edge>
    <edge id=":10019469307_4" function="internal">
        <lane id=":10019469307_4_0" index="0" allow="pedestrian delivery bicycle" speed="3.69" length="1.96" shape="2594.99,1484.79 2595.46,1484.90 2596.55,1485.90"/>
    </edge>
    <edge id=":10019469307_2" function="internal">
        <lane id=":10019469307_2_0" index="0" allow="pedestrian delivery bicycle" speed="5.56" length="6.81" shape="2598.13,1479.47 2597.42,1480.27 2596.93,1481.61 2596.63,1483.48 2596.55,1485.90"/>
    </edge>
    <edge id=":10019469307_3" function="internal">
        <lane id=":10019469307_3_0" index="0" allow="pedestrian delivery bicycle" speed="4.47" length="5.43" shape="2598.13,1479.47 2596.67,1481.53 2595.25,1482.18 2594.07,1481.54"/>
    </edge>
    <edge id=":10019469307_5" function="internal">
        <lane id=":10019469307_5_0" index="0" allow="pedestrian delivery bicycle" speed="4.47" length="2.74" shape="2594.07,1481.54 2593.87,1481.44 2592.54,1479.30"/>
    </edge>
    <edge id=":10019469313_0" function="internal">
        <lane id=":10019469313_0_0" index="0" allow="pedestrian delivery bicycle" speed="5.56" length="5.37" shape="2612.13,1470.34 2607.63,1473.28"/>
    </edge>
    <edge id=":10019469313_1" function="internal">
        <lane id=":10019469313_1_0" index="0" allow="pedestrian delivery bicycle" speed="3.65" length="2.34" shape="2612.13,1470.34 2610.69,1470.33 2609.92,1469.88"/>
    </edge>
    <edge id=":10019469313_4" function="internal">
        <lane id=":10019469313_4_0" index="0" allow="pedestrian delivery bicycle" speed="3.65" length="2.34" shape="2609.92,1469.88 2609.81,1468.99 2610.38,1467.66"/>
    </edge>
    <edge id=":10019469313_2" function="internal">
        <lane id=":10019469313_2_0" index="0" allow="pedestrian delivery bicycle" speed="5.56" length="5.37" shape="2605.88,1470.59 2610.38,1467.66"/>
    </edge>
    <edge id=":10019469313_3" function="internal">
        <lane id=":10019469313_3_0" index="0" allow="pedestrian delivery bicycle" speed="3.65" length="2.34" shape="2605.88,1470.59 2607.32,1470.61 2608.10,1471.06"/>
    </edge>
    <edge id=":10019469313_5" function="internal">
        <lane id=":10019469313_5_0" index="0" allow="pedestrian delivery bicycle" speed="3.65" length="2.34" shape="2608.10,1471.06 2608.20,1471.95 2607.63,1473.28"/>
    </edge>
    <edge id=":10019469315_0" function="internal">
        <lane id=":10019469315_0_0" index="0" allow="pedestrian delivery bicycle" speed="3.65" length="4.67" shape="2649.01,1501.18 2650.07,1502.15 2650.34,1503.01 2649.83,1503.74 2648.52,1504.34"/>
    </edge>
    <edge id=":10034543902_0" function="internal">
        <lane id=":10034543902_0_0" index="0" allow="pedestrian delivery bicycle" speed="5.56" length="5.03" shape="2444.82,2186.75 2443.35,2186.49 2442.35,2186.28 2441.34,2186.13 2439.85,2186.02"/>
    </edge>
    <edge id=":10034543902_1" function="internal">
        <lane id=":10034543902_1_0" index="0" allow="pedestrian delivery bicycle" speed="3.65" length="2.34" shape="2444.82,2186.75 2443.76,2185.77 2443.49,2184.92"/>
    </edge>
    <edge id=":10034543902_4" function="internal">
        <lane id=":10034543902_4_0" index="0" allow="pedestrian delivery bicycle" speed="3.65" length="2.34" shape="2443.49,2184.92 2444.01,2184.19 2445.32,2183.59"/>
    </edge>
    <edge id=":10034543902_2" function="internal">
        <lane id=":10034543902_2_0" index="0" allow="pedestrian delivery bicycle" speed="5.56" length="5.03" shape="2440.36,2182.84 2441.84,2182.95 2442.85,2183.11 2443.85,2183.32 2445.32,2183.59"/>
    </edge>
    <edge id=":10034543902_3" function="internal">
        <lane id=":10034543902_3_0" index="0" allow="pedestrian delivery bicycle" speed="3.66" length="2.22" shape="2440.36,2182.84 2441.42,2183.82 2441.65,2184.56"/>
    </edge>
    <edge id=":10034543902_5" function="internal">
        <lane id=":10034543902_5_0" index="0" allow="pedestrian delivery bicycle" speed="3.66" length="2.48" shape="2441.65,2184.56 2441.69,2184.68 2441.17,2185.41 2439.85,2186.02"/>
    </edge>
    <edge id=":10034543909_0" function="internal">
        <lane id=":10034543909_0_0" index="0" allow="pedestrian delivery bicycle" speed="5.56" length="5.00" shape="2403.22,1951.92 2402.82,1946.93"/>
    </edge>
    <edge id=":101208562_0" function="internal">
        <lane id=":101208562_0_0" index="0" disallow="tram rail_urban rail rail_electric rail_fast ship" speed="13.89" length="9.39" shape="2375.47,1557.74 2376.34,1567.09"/>
    </edge>
    <edge id=":101208562_1" function="internal">
        <lane id=":101208562_1_0" index="0" disallow="tram rail_urban rail rail_electric rail_fast ship" speed="6.08" length="7.75" shape="2375.47,1557.74 2375.52,1560.51 2375.12,1562.52 2374.26,1563.78 2372.95,1564.30"/>
    </edge>
    <edge id=":101208562_2" function="internal">
        <lane id=":101208562_2_0" index="0" disallow="tram rail_urban rail rail_electric rail_fast ship" speed="6.09" length="1.09" shape="2372.66,1561.11 2373.73,1561.32"/>
    </edge>
    <edge id=":101208562_3" function="internal">
        <lane id=":101208562_3_0" index="0" disallow="tram rail_urban rail rail_electric rail_fast ship" speed="6.09" length="6.66" shape="2373.73,1561.32 2374.04,1561.38 2375.12,1562.47 2375.88,1564.37 2376.34,1567.09"/>
    </edge>
    <edge id=":101208564_0" function="internal">
        <lane id=":101208564_0_0" index="0" disallow="tram rail_urban rail rail_electric rail_fast ship" speed="13.89" length="5.61" shape="2334.44,1726.12 2333.96,1727.70 2333.76,1728.83 2333.77,1729.98 2333.91,1731.63"/>
    </edge>
    <edge id=":101208564_1" function="internal">
        <lane id=":101208564_1_0" index="0" disallow="tram rail_urban rail rail_electric rail_fast ship" speed="5.07" length="1.61" shape="2330.59,1728.77 2331.94,1728.88 2332.16,1728.99"/>
    </edge>
    <edge id=":101208564_2" function="internal">
        <lane id=":101208564_2_0" index="0" disallow="tram rail_urban rail rail_electric rail_fast ship" speed="5.07" length="3.36" shape="2332.16,1728.99 2332.94,1729.39 2333.60,1730.31 2333.91,1731.63"/>
    </edge>
    <edge id=":101208566_0" function="internal">
        <lane id=":101208566_0_0" index="0" disallow="tram rail_urban rail rail_electric rail_fast ship" speed="13.89" length="11.19" shape="2352.14,1887.53 2340.99,1888.44"/>
        <lane id=":101208566_0_1" index="1" disallow="tram rail_urban rail rail_electric rail_fast ship" speed="13.89" length="11.19" shape="2351.88,1884.34 2340.73,1885.25"/>
    </edge>
    <edge id=":101208566_2" function="internal">
        <lane id=":101208566_2_0" index="0" disallow="tram rail_urban rail rail_electric rail_fast ship" speed="6.51" length="9.03" shape="2345.85,1879.22 2345.70,1881.69 2344.80,1883.52 2343.14,1884.71 2340.73,1885.25"/>
    </edge>
    <edge id=":101208812_0" function="internal">
        <lane id=":101208812_0_0" index="0" disallow="tram rail_urban rail rail_electric rail_fast ship" speed="13.89" length="14.52" shape="2449.65,1268.62 2448.46,1254.12"/>
        <lane id=":101208812_0_1" index="1" disallow="tram rail_urban rail rail_electric rail_fast ship" speed="13.89" length="14.52" shape="2452.84,1268.33 2451.65,1253.88"/>
    </edge>
    <edge id=":101208812_2" function="internal">
        <lane id=":101208812_2_0" index="0" disallow="tram rail_urban rail rail_electric rail_fast ship" speed="8.66" length="5.33" shape="2452.84,1268.33 2453.25,1264.41 2454.03,1263.26"/>
    </edge>
    <edge id=":101208812_3" function="internal">
        <lane id=":101208812_3_0" index="0" disallow="tram rail_urban rail rail_electric rail_fast ship" speed="3.65" length="2.34" shape="2452.84,1268.33 2453.53,1267.07 2454.29,1266.60"/>
    </edge>
    <edge id=":101208812_13" function="internal">
        <lane id=":101208812_13_0" index="0" disallow="tram rail_urban rail rail_electric rail_fast ship" speed="8.66" length="11.57" shape="2454.03,1263.26 2455.25,1261.47 2458.86,1259.51 2464.06,1258.54"/>
    </edge>
    <edge id=":101208812_14" function="internal">
        <lane id=":101208812_14_0" index="0" disallow="tram rail_urban rail rail_electric rail_fast ship" speed="3.65" length="2.34" shape="2454.29,1266.60 2455.12,1266.93 2456.03,1268.05"/>
    </edge>
    <edge id=":101208812_4" function="internal">
        <lane id=":101208812_4_0" index="0" disallow="tram rail_urban rail rail_electric rail_fast ship" speed="6.49" length="9.03" shape="2464.31,1261.73 2461.90,1262.28 2460.24,1263.46 2459.35,1265.30 2459.21,1267.77"/>
    </edge>
    <edge id=":101208812_5" function="internal">
        <lane id=":101208812_5_0" index="0" disallow="tram rail_urban rail rail_electric rail_fast ship" speed="8.67" length="16.89" shape="2464.31,1261.73 2459.02,1261.60 2455.15,1260.25 2452.69,1257.68 2451.65,1253.88"/>
    </edge>
    <edge id=":101208812_6" function="internal">
        <lane id=":101208812_6_0" index="0" disallow="tram rail_urban rail rail_electric rail_fast ship" speed="3.65" length="4.67" shape="2464.31,1261.73 2463.05,1261.03 2462.59,1260.26 2462.93,1259.43 2464.06,1258.54"/>
    </edge>
    <edge id=":101208812_7" function="internal">
        <lane id=":101208812_7_0" index="0" disallow="tram rail_urban rail rail_electric rail_fast ship" speed="6.50" length="9.04" shape="2458.03,1253.40 2458.57,1255.82 2459.75,1257.48 2461.58,1258.39 2464.06,1258.54"/>
    </edge>
    <edge id=":101208812_8" function="internal">
        <lane id=":101208812_8_0" index="0" disallow="tram rail_urban rail rail_electric rail_fast ship" speed="13.89" length="14.44" shape="2458.03,1253.40 2459.21,1267.77"/>
        <lane id=":101208812_8_1" index="1" disallow="tram rail_urban rail rail_electric rail_fast ship" speed="13.89" length="14.44" shape="2454.84,1253.64 2456.03,1268.05"/>
    </edge>
    <edge id=":101208812_10" function="internal">
        <lane id=":101208812_10_0" index="0" disallow="tram rail_urban rail rail_electric rail_fast ship" speed="7.04" length="10.55" shape="2443.43,1261.99 2445.84,1261.29 2447.48,1259.75 2448.35,1257.36 2448.46,1254.12"/>
    </edge>
    <edge id=":101208812_11" function="internal">
        <lane id=":101208812_11_0" index="0" disallow="tram rail_urban rail rail_electric rail_fast ship" speed="13.89" length="20.92" shape="2443.43,1261.99 2464.06,1258.54"/>
    </edge>
    <edge id=":101208812_12" function="internal">
        <lane id=":101208812_12_0" index="0" disallow="tram rail_urban rail rail_electric rail_fast ship" speed="8.36" length="15.70" shape="2443.43,1261.99 2448.70,1261.93 2452.56,1262.92 2455.00,1264.96 2456.03,1268.05"/>
    </edge>
    <edge id=":101208934_0" function="internal">
        <lane id=":101208934_0_0" index="0" disallow="tram rail_urban rail rail_electric rail_fast ship" speed="6.52" length="8.82" shape="2351.94,1264.95 2352.58,1267.25 2353.82,1268.83 2355.64,1269.68 2358.05,1269.80"/>
    </edge>
    <edge id=":101208934_1" function="internal">
        <lane id=":101208934_1_0" index="0" disallow="tram rail_urban rail rail_electric rail_fast ship" speed="13.89" length="10.82" shape="2351.94,1264.95 2353.08,1275.70"/>
    </edge>
    <edge id=":102279502_0" function="internal">
        <lane id=":102279502_0_0" index="0" disallow="tram rail_urban rail rail_electric rail_fast ship" speed="6.53" length="8.35" shape="2587.69,2172.91 2587.66,2175.17 2588.33,2176.97 2589.71,2178.30 2591.79,2179.18"/>
    </edge>
    <edge id=":102279502_1" function="internal">
        <lane id=":102279502_1_0" index="0" disallow="tram rail_urban rail rail_electric rail_fast ship" speed="3.65" length="4.67" shape="2587.69,2172.91 2586.72,2173.98 2585.87,2174.25 2585.14,2173.74 2584.53,2172.43"/>
    </edge>
    <edge id=":102279502_2" function="internal">
        <lane id=":102279502_2_0" index="0" disallow="tram rail_urban rail rail_electric rail_fast ship" speed="8.33" length="10.38" shape="2584.53,2182.77 2584.75,2179.77 2584.54,2177.60 2584.32,2175.44 2584.53,2172.43"/>
    </edge>
    <edge id=":102279502_3" function="internal">
        <lane id=":102279502_3_0" index="0" disallow="tram rail_urban rail rail_electric rail_fast ship" speed="6.42" length="9.43" shape="2584.53,2182.77 2585.30,2180.56 2586.77,2179.23 2588.93,2178.76 2591.79,2179.18"/>
    </edge>
    <edge id=":102279998_0" function="internal">
        <lane id=":102279998_0_0" index="0" disallow="tram rail_urban rail rail_electric rail_fast ship" speed="8.33" length="11.28" shape="2524.40,2237.49 2513.93,2233.29"/>
    </edge>
    <edge id=":102279998_1" function="internal">
        <lane id=":102279998_1_0" index="0" disallow="tram rail_urban rail rail_electric rail_fast ship" speed="6.05" length="9.07" shape="2520.38,2229.54 2519.66,2232.02 2518.35,2233.47 2516.44,2233.89 2513.93,2233.29"/>
    </edge>
    <edge id=":102280398_0" function="internal">
        <lane id=":102280398_0_0" index="0" disallow="tram rail_urban rail rail_electric rail_fast ship" speed="8.33" length="11.30" shape="2554.99,1898.90 2566.24,1897.84"/>
    </edge>
    <edge id=":102280398_1" function="internal">
        <lane id=":102280398_1_0" index="0" disallow="tram rail_urban rail rail_electric rail_fast ship" speed="6.12" length="9.06" shape="2554.99,1898.90 2557.55,1899.00 2559.30,1899.91 2560.23,1901.65 2560.36,1904.20"/>
    </edge>
    <edge id=":102285545_0" function="internal">
        <lane id=":102285545_0_0" index="0" disallow="tram rail_urban rail rail_electric rail_fast ship" speed="6.51" length="8.82" shape="2175.47,1900.27 2173.10,1900.70 2171.41,1901.78 2170.40,1903.51 2170.08,1905.90"/>
    </edge>
    <edge id=":102285545_1" function="internal">
        <lane id=":102285545_1_0" index="0" disallow="tram rail_urban rail rail_electric rail_fast ship" speed="3.65" length="4.67" shape="2175.47,1900.27 2174.24,1899.52 2173.81,1898.73 2174.18,1897.92 2175.34,1897.07"/>
    </edge>
    <edge id=":102285545_2" function="internal">
        <lane id=":102285545_2_0" index="0" disallow="tram rail_urban rail rail_electric rail_fast ship" speed="6.53" length="8.83" shape="2169.51,1891.88 2170.03,1894.23 2171.17,1895.88 2172.95,1896.83 2175.34,1897.07"/>
    </edge>
    <edge id=":102285545_3" function="internal">
        <lane id=":102285545_3_0" index="0" disallow="tram rail_urban rail rail_electric rail_fast ship" speed="13.89" length="13.92" shape="2169.51,1891.88 2170.08,1905.90"/>
        <lane id=":102285545_3_1" index="1" disallow="tram rail_urban rail rail_electric rail_fast ship" speed="13.89" length="13.92" shape="2166.32,1892.12 2166.88,1905.92"/>
    </edge>
    <edge id=":102385605_0" function="internal">
        <lane id=":102385605_0_0" index="0" allow="pedestrian delivery bicycle" speed="3.65" length="4.67" shape="2711.46,1471.30 2712.83,1471.75 2713.43,1472.41 2713.27,1473.29 2712.33,1474.38"/>
    </edge>
    <edge id=":1137736743_0" function="internal">
        <lane id=":1137736743_0_0" index="0" disallow="tram rail_urban rail rail_electric rail_fast ship" speed="8.33" length="11.22" shape="2526.12,2191.24 2524.37,2202.32"/>
    </edge>
    <edge id=":1137736743_1" function="internal">
        <lane id=":1137736743_1_0" index="0" disallow="tram rail_urban rail rail_electric rail_fast ship" speed="6.50" length="9.04" shape="2519.73,2195.91 2522.10,2196.64 2523.66,2197.95 2524.42,2199.84 2524.37,2202.32"/>
    </edge>
    <edge id=":1137736748_0" function="internal">
        <lane id=":1137736748_0_0" index="0" disallow="tram rail_urban rail rail_electric rail_fast ship" speed="8.33" length="11.10" shape="2524.03,2204.40 2522.37,2215.37"/>
    </edge>
    <edge id=":1137736748_1" function="internal">
        <lane id=":1137736748_1_0" index="0" disallow="tram rail_urban rail rail_electric rail_fast ship" speed="6.51" length="8.98" shape="2524.03,2204.40 2523.30,2206.74 2521.99,2208.30 2520.11,2209.06 2517.65,2209.03"/>
    </edge>
    <edge id=":119867479_0" function="internal">
        <lane id=":119867479_0_0" index="0" disallow="tram rail_urban rail rail_electric rail_fast ship" speed="3.65" length="4.67" shape="2435.27,1203.18 2435.28,1201.73 2435.73,1200.96 2436.62,1200.86 2437.94,1201.42"/>
    </edge>
    <edge id=":1251024171_0" function="internal">
        <lane id=":1251024171_0_0" index="0" disallow="tram rail_urban rail rail_electric rail_fast ship" speed="6.45" length="9.03" shape="2157.71,1734.13 2158.22,1736.56 2159.38,1738.23 2161.20,1739.13 2163.68,1739.26"/>
    </edge>
    <edge id=":1251024171_1" function="internal">
        <lane id=":1251024171_1_0" index="0" disallow="tram rail_urban rail rail_electric rail_fast ship" speed="13.89" length="17.61" shape="2157.71,1734.13 2158.95,1751.67"/>
        <lane id=":1251024171_1_1" index="1" disallow="tram rail_urban rail rail_electric rail_fast ship" speed="13.89" length="17.61" shape="2154.52,1734.32 2155.76,1751.91"/>
    </edge>
    <edge id=":1251024171_3" function="internal">
        <lane id=":1251024171_3_0" index="0" disallow="tram rail_urban rail rail_electric rail_fast ship" speed="13.89" length="17.23" shape="2154.52,1734.32 2154.45,1739.85 2153.63,1744.08 2152.25,1747.56 2150.55,1750.79"/>
    </edge>
    <edge id=":1430267878_0" function="internal">
        <lane id=":1430267878_0_0" index="0" allow="pedestrian delivery bicycle" speed="3.65" length="4.67" shape="1816.74,1213.91 1817.43,1212.64 1818.20,1212.17 1819.03,1212.50 1819.93,1213.63"/>
    </edge>
    <edge id=":1430267879_0" function="internal">
        <lane id=":1430267879_0_0" index="0" disallow="tram rail_urban rail rail_electric rail_fast ship" speed="13.89" length="9.00" shape="1908.35,1248.24 1908.98,1256.92"/>
        <lane id=":1430267879_0_1" index="1" disallow="tram rail_urban rail rail_electric rail_fast ship" speed="13.89" length="9.00" shape="1905.16,1248.37 1905.80,1257.25"/>
        <lane id=":1430267879_0_2" index="2" disallow="tram rail_urban rail rail_electric rail_fast ship" speed="13.89" length="9.00" shape="1901.96,1248.50 1902.61,1257.57"/>
        <lane id=":1430267879_0_3" index="3" disallow="tram rail_urban rail rail_electric rail_fast ship" speed="13.89" length="9.00" shape="1898.76,1248.62 1899.43,1257.90"/>
    </edge>
    <edge id=":1430267879_4" function="internal">
        <lane id=":1430267879_4_0" index="0" allow="pedestrian delivery bicycle" speed="6.16" length="7.70" shape="1898.76,1248.62 1898.69,1251.36 1898.21,1253.36 1897.33,1254.61 1896.05,1255.11"/>
    </edge>
    <edge id=":1430267879_5" function="internal">
        <lane id=":1430267879_5_0" index="0" allow="pedestrian delivery bicycle" speed="6.87" length="10.10" shape="1895.76,1251.92 1898.52,1252.07 1900.58,1253.06 1901.95,1254.89 1902.61,1257.57"/>
        <lane id=":1430267879_5_1" index="1" allow="pedestrian delivery bicycle" speed="6.10" length="7.72" shape="1895.76,1251.92 1897.13,1252.20 1898.19,1253.28 1898.96,1255.18 1899.43,1257.90"/>
    </edge>
    <edge id=":1430267879_7" function="internal">
        <lane id=":1430267879_7_0" index="0" allow="pedestrian delivery bicycle" speed="3.65" length="4.67" shape="1895.76,1251.92 1897.03,1252.61 1897.50,1253.37 1897.17,1254.21 1896.05,1255.11"/>
    </edge>
    <edge id=":1430279705_0" function="internal">
        <lane id=":1430279705_0_0" index="0" disallow="tram rail_urban rail rail_electric rail_fast ship" speed="13.89" length="4.91" shape="1854.85,1426.07 1859.80,1425.60"/>
        <lane id=":1430279705_0_1" index="1" disallow="tram rail_urban rail rail_electric rail_fast ship" speed="13.89" length="4.91" shape="1855.18,1429.25 1860.08,1428.78"/>
        <lane id=":1430279705_0_2" index="2" disallow="tram rail_urban rail rail_electric rail_fast ship" speed="13.89" length="4.91" shape="1855.52,1432.43 1860.35,1431.97"/>
    </edge>
    <edge id=":1430279708_0" function="internal">
        <lane id=":1430279708_0_0" index="0" disallow="tram rail_urban rail rail_electric rail_fast ship" speed="13.89" length="5.00" shape="1709.51,1378.33 1709.10,1373.35"/>
        <lane id=":1430279708_0_1" index="1" disallow="tram rail_urban rail rail_electric rail_fast ship" speed="13.89" length="5.00" shape="1712.70,1378.07 1712.28,1373.08"/>
        <lane id=":1430279708_0_2" index="2" disallow="tram rail_urban rail rail_electric rail_fast ship" speed="13.89" length="5.00" shape="1715.89,1377.80 1715.47,1372.81"/>
        <lane id=":1430279708_0_3" index="3" disallow="tram rail_urban rail rail_electric rail_fast ship" speed="13.89" length="5.00" shape="1719.08,1377.53 1718.66,1372.55"/>
    </edge>
    <edge id=":1430279721_0" function="internal">
        <lane id=":1430279721_0_0" index="0" disallow="tram rail_urban rail rail_electric rail_fast ship" speed="13.89" length="5.00" shape="1913.93,1316.17 1914.33,1321.16"/>
        <lane id=":1430279721_0_1" index="1" disallow="tram rail_urban rail rail_electric rail_fast ship" speed="13.89" length="5.00" shape="1910.75,1316.43 1911.14,1321.41"/>
        <lane id=":1430279721_0_2" index="2" disallow="tram rail_urban rail rail_electric rail_fast ship" speed="13.89" length="5.00" shape="1907.56,1316.68 1907.95,1321.67"/>
        <lane id=":1430279721_0_3" index="3" disallow="tram rail_urban rail rail_electric rail_fast ship" speed="13.89" length="5.00" shape="1904.37,1316.94 1904.76,1321.92"/>
    </edge>
    <edge id=":1430283511_0" function="internal">
        <lane id=":1430283511_0_0" index="0" disallow="tram rail_urban rail rail_electric rail_fast ship" speed="13.89" length="4.99" shape="2042.15,1344.64 2041.79,1339.66"/>
        <lane id=":1430283511_0_1" index="1" disallow="tram rail_urban rail rail_electric rail_fast ship" speed="13.89" length="4.99" shape="2045.34,1344.41 2044.98,1339.44"/>
    </edge>
    <edge id=":1430283513_0" function="internal">
        <lane id=":1430283513_0_0" index="0" disallow="tram rail_urban rail rail_electric rail_fast ship" speed="13.89" length="5.00" shape="1980.37,1261.47 1975.39,1261.92"/>
    </edge>
    <edge id=":1430283513_1" function="internal">
        <lane id=":1430283513_1_0" index="0" disallow="tram rail_urban rail rail_electric rail_fast ship" speed="13.89" length="5.01" shape="1975.10,1258.74 1980.09,1258.29"/>
    </edge>
    <edge id=":1446482643_0" function="internal">
        <lane id=":1446482643_0_0" index="0" disallow="tram rail_urban rail rail_electric rail_fast ship" speed="13.89" length="5.95" shape="2091.24,2248.79 2089.81,2249.55 2088.85,2250.10 2087.91,2250.69 2086.58,2251.59"/>
        <lane id=":1446482643_0_1" index="1" disallow="tram rail_urban rail rail_electric rail_fast ship" speed="13.89" length="5.95" shape="2089.72,2245.97 2088.21,2246.79 2087.18,2247.36 2086.19,2247.99 2084.76,2248.95"/>
        <lane id=":1446482643_0_2" index="2" disallow="tram rail_urban rail rail_electric rail_fast ship" speed="13.89" length="5.95" shape="2088.20,2243.16 2082.95,2246.31"/>
        <lane id=":1446482643_0_3" index="3" disallow="tram rail_urban rail rail_electric rail_fast ship" speed="13.89" length="5.95" shape="2086.68,2240.34 2081.14,2243.68"/>
    </edge>
    <edge id=":155512553_0" function="internal">
        <lane id=":155512553_0_0" index="0" disallow="tram rail_urban rail rail_electric rail_fast ship" speed="7.56" length="1.73" shape="1942.68,2154.07 1941.48,2152.83"/>
    </edge>
    <edge id=":155512553_3" function="internal">
        <lane id=":155512553_3_0" index="0" disallow="tram rail_urban rail rail_electric rail_fast ship" speed="7.56" length="7.18" shape="1941.48,2152.83 1941.34,2152.69 1940.59,2150.86 1940.42,2148.59 1940.85,2145.89"/>
    </edge>
    <edge id=":155512553_1" function="internal">
        <lane id=":155512553_1_0" index="0" disallow="tram rail_urban rail rail_electric rail_fast ship" speed="13.89" length="10.00" shape="1938.66,2155.64 1940.85,2145.89"/>
    </edge>
    <edge id=":155512553_2" function="internal">