<?xml version="1.0" encoding="UTF-8"?>
<!-- generated on 2022-11-02 15:11:31.792964 by randomTrips.py v1_11_0+0000-d32ff7d52a3
  options: -n heterogeneous.net.xml -e 100 -o heterogeneus.trips.xml
-->
<routes xmlns:xsi="http://www.w3.org/2001/XMLSchema-instance" xsi:noNamespaceSchemaLocation="http://sumo.dlr.de/xsd/routes_file.xsd">
    <trip id="0" depart="0.00" from="423890808#5" to="-11499089#3"/>
    <trip id="1" depart="1.00" from="131553938#0" to="11481005#1"/>
    <trip id="2" depart="2.00" from="511241906" to="43760355"/>
    <trip id="3" depart="3.00" from="8067293#2" to="-4856374#0"/>
    <trip id="4" depart="4.00" from="255825112#1" to="-15591956#1"/>
    <trip id="5" depart="5.00" from="11104324#2" to="31783746#1"/>
    <trip id="6" depart="6.00" from="-11499089#0" to="11104285#2"/>
    <trip id="7" depart="7.00" from="4290771#0" to="35341532#1"/>
    <trip id="8" depart="8.00" from="11104324#3" to="400902434#2"/>
    <trip id="9" depart="9.00" from="7990964#4" to="-11103146#0"/>
    <trip id="10" depart="10.00" from="7990964#2" to="45695098#1"/>
    <trip id="11" depart="11.00" from="241922439#0" to="1014474058#1"/>
    <trip id="12" depart="12.00" from="9938481#1" to="241924351#3"/>
    <trip id="13" depart="13.00" from="-4339395#2" to="-62723691#1"/>
    <trip id="14" depart="14.00" from="8050581" to="423236497#0"/>
    <trip id="15" depart="15.00" from="7990964#3" to="511249856"/>
    <trip id="16" depart="16.00" from="322323760#0" to="9938643#1"/>
    <trip id="17" depart="17.00" from="241927850" to="35341532#5"/>
    <trip id="18" depart="18.00" from="8039238#4" to="423890808#5"/>
    <trip id="19" depart="19.00" from="8050624#1" to="398715615"/>
    <trip id="20" depart="20.00" from="444159755#1" to="-218096244#2"/>
    <trip id="21" depart="21.00" from="11380918#2" to="161905017#2"/>
    <trip id="22" depart="22.00" from="-420954799" to="11481152#1"/>
    <trip id="23" depart="23.00" from="-4856374#0" to="15591956#2"/>
    <trip id="24" depart="24.00" from="423890808#3" to="241927852"/>
    <trip id="25" depart="25.00" from="241924367#2" to="11380918#1"/>
    <trip id="26" depart="26.00" from="11499089#2" to="9935104#0"/>
    <trip id="27" depart="27.00" from="4290771#0" to="423236497#2"/>
    <trip id="28" depart="28.00" from="1014474058#0" to="511249856"/>
    <trip id="29" depart="29.00" from="-9935276#8" to="246703510"/>
    <trip id="30" depart="30.00" from="9938694" to="4290966#0"/>
    <trip id="31" depart="31.00" from="35341525#3" to="444159755#1"/>
    <trip id="32" depart="32.00" from="8039336#0" to="74017974"/>
    <trip id="33" depart="33.00" from="11380918#2" to="-15591956#2"/>
    <trip id="34" depart="34.00" from="199577461" to="131553945"/>
    <trip id="35" depart="35.00" from="11103536#1" to="9935276#11"/>
    <trip id="36" depart="36.00" from="8050631#1" to="222649407#1"/>
    <trip id="37" depart="37.00" from="4290771#3" to="24853451"/>
    <trip id="38" depart="38.00" from="9934406#0" to="28852323"/>
    <trip id="39" depart="39.00" from="11499089#1" to="11489061"/>
    <trip id="40" depart="40.00" from="35341527#0" to="131553938#1"/>
    <trip id="41" depart="41.00" from="389561960#1" to="910599750"/>
    <trip id="42" depart="42.00" from="24704310#0" to="11480909"/>
    <trip id="43" depart="43.00" from="9938789#1" to="31783748#1"/>
    <trip id="44" depart="44.00" from="-4339395#1" to="-218097340#0"/>
    <trip id="45" depart="45.00" from="-56323540" to="424637149#0"/>
    <trip id="46" depart="46.00" from="7704270#2" to="258268152#3"/>
    <trip id="47" depart="47.00" from="-222649412#1" to="246703511"/>
    <trip id="48" depart="48.00" from="9938789#1" to="335720388#3"/>
    <trip id="49" depart="49.00" from="9938643#1" to="8050624#0"/>
    <trip id="50" depart="50.00" from="-11103146#0" to="511241906"/>
    <trip id="51" depart="51.00" from="43760118#1" to="35341525#0"/>
    <trip id="52" depart="52.00" from="11499089#2" to="4290966#0"/>
    <trip id="53" depart="53.00" from="-588981938" to="266013226#1"/>
    <trip id="54" depart="54.00" from="266013226#1" to="9938469"/>
    <trip id="55" depart="55.00" from="8050631#1" to="131553938#1"/>
    <trip id="56" depart="56.00" from="303409653" to="11103115#0"/>
    <trip id="57" depart="57.00" from="98338861" to="8050629#0"/>
    <trip id="58" depart="58.00" from="15591956#4" to="4290771#4"/>
    <trip id="59" depart="59.00" from="400902432#3" to="1014474056"/>
    <trip id="60" depart="60.00" from="62723974#1" to="35341527#0"/>
    <trip id="61" depart="61.00" from="65084625" to="353271251#2"/>
    <trip id="62" depart="62.00" from="-1014474052#1" to="23572506#2"/>
    <trip id="63" depart="63.00" from="-11380998#1" to="9934418#1"/>
    <trip id="64" depart="64.00" from="8050631#2" to="8039246#4"/>
    <trip id="65" depart="65.00" from="161905020" to="-242549905"/>
    <trip id="66" depart="66.00" from="8050631#2" to="9935276#3"/>
    <trip id="67" depart="67.00" from="-423236497#2" to="303409654#0"/>
    <trip id="68" depart="68.00" from="-299869382" to="65084623#0"/>
    <trip id="69" depart="69.00" from="65084616#1" to="-9935022#1"/>
    <trip id="70" depart="70.00" from="28852318#2" to="35341532#4"/>
    <trip id="71" depart="71.00" from="11499089#1" to="8050629#1"/>
    <trip id="72" depart="72.00" from="255825113#0" to="11380918#2"/>
    <trip id="73" depart="73.00" from="335720388#1" to="511249856"/>
    <trip id="74" depart="74.00" from="11103146#2" to="218518370"/>
    <trip id="75" depart="75.00" from="9938789#0" to="4319090"/>
    <trip id="76" depart="76.00" from="258268152#2" to="321225331#2"/>
    <trip id="77" depart="77.00" from="-65084623#1" to="11481147#0"/>
    <trip id="78" depart="78.00" from="23572506#2" to="400902434#2"/>
    <trip id="79" depart="79.00" from="11380936" to="11480909"/>
    <trip id="80" depart="80.00" from="-303407850#1" to="4290771#0"/>
    <trip id="81" depart="81.00" from="11380918#2" to="969583078"/>
    <trip id="82" depart="82.00" from="8050624#0" to="-423236497#0"/>
    <trip id="83" depart="83.00" from="11481005#0" to="43760338#2"/>
    <trip id="84" depart="84.00" from="11104324#0" to="-9935276#0"/>
    <trip id="85" depart="85.00" from="9935104#0" to="398715613#0"/>
    <trip id="86" depart="86.00" from="28852318#0" to="7704270#1"/>
    <trip id="87" depart="87.00" from="7990964#3" to="11103166#2"/>
    <trip id="88" depart="88.00" from="-43760391#2" to="258268153#3"/>
    <trip id="89" depart="89.00" from="255825113#0" to="303407845"/>
    <trip id="90" depart="90.00" from="4856374#3" to="43760340#1"/>
    <trip id="91" depart="91.00" from="9938686#1" to="-62723691#1"/>
    <trip id="92" depart="92.00" from="247134046" to="241924352"/>
    <trip id="93" depart="93.00" from="8050624#1" to="11499089#0"/>
    <trip id="94" depart="94.00" from="11103084#0" to="286652036#0"/>
    <trip id="95" depart="95.00" from="255825112#1" to="15591956#2"/>
    <trip id="96" depart="96.00" from="11481152#2" to="9934416#1"/>
    <trip id="97" depart="97.00" from="258268153#0" to="8050624#1"/>
    <trip id="98" depart="98.00" from="353271251#3" to="-222649407#0"/>
    <trip id="99" depart="99.00" from="9939682" to="8039336#0"/>
</routes>
