<?xml version="1.0" encoding="UTF-8"?>

<!-- generated on 2022-09-07 14:39:30 by Eclipse SUMO duarouter Version 1.14.1
<configuration xmlns:xsi="http://www.w3.org/2001/XMLSchema-instance" xsi:noNamespaceSchemaLocation="http://sumo.dlr.de/xsd/duarouterConfiguration.xsd">

    <input>
        <net-file value="ciu.net.xml"/>
        <route-files value="ciu.trips.xml"/>
    </input>

    <output>
        <output-file value="ciu.rou.xml"/>
    </output>

    <report>
        <ignore-errors value="true"/>
    </report>

</configuration>
-->

<routes xmlns:xsi="http://www.w3.org/2001/XMLSchema-instance" xsi:noNamespaceSchemaLocation="http://sumo.dlr.de/xsd/routes_file.xsd">
    <vehicle id="0" depart="0.00">
        <route edges="37675292#1 -37675294#7 -37675294#6 -37675294#5 -37675294#4 150772480#0 150772480#1 236816634#3 6226564#0 -138226806"/>
    </vehicle>
    <vehicle id="1" depart="1.00">
        <route edges="138226821#3 138226821#4 138226821#5 138226821#6 948268160#1 948268159#1 948268159#2 948268159#3 948268159#4 553994833#1 553994833#2 -65167031#1 -65167031#0 65167026 65167023 65167034#0 65167034#1 6226599 138226806 65167012#0 71554272 71554229#0 6226573 688242878#1 77065962#0 77065962#1 26700611#1 26700611#2 26700611#5 26700611#7 30725629 11353089#0 11353089#1"/>
    </vehicle>
    <vehicle id="2" depart="2.00">
        <route edges="6226546 71554218 236816634#0 236816634#1 150772479#0 150772479#1 37675294#4 37675294#5 37675294#6"/>
    </vehicle>
    <vehicle id="3" depart="3.00">
        <route edges="71554258 71554218 236816634#0 236816634#1 236816634#2 236816634#3 77065966#0 65167025#0 65159773#2 7732081#0 7732081#1 251998031 -316379057"/>
    </vehicle>
    <vehicle id="4" depart="4.00">
        <route edges="150772480#1 236816634#3 77065966#0 71554272 71554229#0 6226573 688242878#1 77065962#0 77065962#1 77065962#2 77065962#3 77065962#4 77065962#5 292585830 71554258 71554218 150772471#0 150772471#1 150772471#2 150772471#3 236816638#0 236816638#1 150760656#0 150760656#1 -150760656#1 -150760656#0"/>
    </vehicle>
    <vehicle id="5" depart="5.00">
        <route edges="119143412#0 119143412#1 119143412#2 119143412#3 150772481#0 150772481#1 77065962#1 77065962#2 77065962#3 77065962#4 77065962#5 292585830 71554258 71554218 236816634#0 236816634#1 236816634#2"/>
    </vehicle>
    <vehicle id="7" depart="7.00">
        <route edges="37675294#0 37675294#1 150772480#0 150772480#1 236816634#3 77065966#0 71554272 71554229#0 6226573 688242878#1 77065962#0 77065962#1 77065962#2 77065962#3 77065962#4 77065962#5 292585830 6226848 240352419 242892876"/>
    </vehicle>
    <vehicle id="8" depart="8.00">
        <route edges="119143412#0 119143412#1 119143412#2 119143412#3 150772481#0 150772481#1 77065962#1 26700611#1 26700611#2"/>
    </vehicle>
    <vehicle id="9" depart="9.00">
        <route edges="65167017#3 65167017#4 501194902 65167031#0 65167031#1 -65167031#1 -65167031#0 65167026 65167023 65167034#0 65167034#1 6226599 138226806 65167012#0 71554272 71554229#0 6226573 688242878#1 77065962#0 77065962#1 26700611#1 26700611#2 26700611#5 26700611#7 30725629 11353089#0 11353089#1 -11353089#1"/>
    </vehicle>
</routes>
