<?xml version="1.0" encoding="UTF-8"?>

<!-- generated on 2022-09-06 17:55:23 by Eclipse SUMO netconvert Version 1.14.1
<configuration xmlns:xsi="http://www.w3.org/2001/XMLSchema-instance" xsi:noNamespaceSchemaLocation="http://sumo.dlr.de/xsd/netconvertConfiguration.xsd">

    <input>
        <osm-files value="map(1).osm"/>
    </input>

    <output>
        <output-file value="ciu.net.xml"/>
    </output>

    <projection>
        <proj.utm value="true"/>
    </projection>

    <processing>
        <geometry.remove value="true"/>
        <roundabouts.guess value="true"/>
    </processing>

    <tls_building>
        <tls.discard-simple value="true"/>
        <tls.join value="true"/>
        <tls.guess-signals value="true"/>
    </tls_building>

    <ramp_guessing>
        <ramps.guess value="true"/>
    </ramp_guessing>

    <junctions>
        <junctions.join value="true"/>
    </junctions>

</configuration>
-->

<net version="1.9" junctionCornerDetail="5" limitTurnSpeed="5.50" xmlns:xsi="http://www.w3.org/2001/XMLSchema-instance" xsi:noNamespaceSchemaLocation="http://sumo.dlr.de/xsd/net_file.xsd">

    <location netOffset="-436360.28,-4476851.43" convBoundary="0.00,0.00,2657.76,2181.67" origBoundary="-3.750600,40.440027,-3.719119,40.459530" projParameter="+proj=utm +zone=30 +ellps=WGS84 +datum=WGS84 +units=m +no_defs"/>

    <type id="highway.bridleway" priority="1" numLanes="1" speed="2.78" allow="pedestrian" oneway="1" width="2.00"/>
    <type id="highway.bus_guideway" priority="1" numLanes="1" speed="27.78" allow="bus" oneway="1"/>
    <type id="highway.cycleway" priority="1" numLanes="1" speed="5.56" allow="bicycle" oneway="0" width="1.00"/>
    <type id="highway.footway" priority="1" numLanes="1" speed="2.78" allow="pedestrian" oneway="1" width="2.00"/>
    <type id="highway.ford" priority="1" numLanes="1" speed="2.78" allow="army" oneway="0"/>
    <type id="highway.living_street" priority="2" numLanes="1" speed="2.78" disallow="tram rail_urban rail rail_electric rail_fast ship" oneway="0"/>
    <type id="highway.motorway" priority="14" numLanes="2" speed="39.44" allow="private emergency authority army vip passenger hov taxi bus coach delivery truck trailer motorcycle evehicle custom1 custom2" oneway="1"/>
    <type id="highway.motorway_link" priority="9" numLanes="1" speed="22.22" allow="private emergency authority army vip passenger hov taxi bus coach delivery truck trailer motorcycle evehicle custom1 custom2" oneway="1"/>
    <type id="highway.path" priority="1" numLanes="1" speed="5.56" allow="pedestrian bicycle" oneway="0" width="2.00"/>
    <type id="highway.pedestrian" priority="1" numLanes="1" speed="2.78" allow="pedestrian" oneway="1" width="2.00"/>
    <type id="highway.primary" priority="12" numLanes="2" speed="27.78" disallow="tram rail_urban rail rail_electric rail_fast ship" oneway="0"/>
    <type id="highway.primary_link" priority="7" numLanes="1" speed="22.22" disallow="tram rail_urban rail rail_electric rail_fast ship" oneway="0"/>
    <type id="highway.raceway" priority="15" numLanes="2" speed="83.33" allow="vip" oneway="0"/>
    <type id="highway.residential" priority="3" numLanes="1" speed="13.89" disallow="tram rail_urban rail rail_electric rail_fast ship" oneway="0"/>
    <type id="highway.secondary" priority="11" numLanes="1" speed="27.78" disallow="tram rail_urban rail rail_electric rail_fast ship" oneway="0"/>
    <type id="highway.secondary_link" priority="6" numLanes="1" speed="22.22" disallow="tram rail_urban rail rail_electric rail_fast ship" oneway="0"/>
    <type id="highway.service" priority="1" numLanes="1" speed="5.56" allow="pedestrian delivery bicycle" oneway="0"/>
    <type id="highway.stairs" priority="1" numLanes="1" speed="1.39" allow="pedestrian" oneway="1" width="2.00"/>
    <type id="highway.step" priority="1" numLanes="1" speed="1.39" allow="pedestrian" oneway="1" width="2.00"/>
    <type id="highway.steps" priority="1" numLanes="1" speed="1.39" allow="pedestrian" oneway="1" width="2.00"/>
    <type id="highway.tertiary" priority="10" numLanes="1" speed="22.22" disallow="tram rail_urban rail rail_electric rail_fast ship" oneway="0"/>
    <type id="highway.tertiary_link" priority="5" numLanes="1" speed="22.22" disallow="tram rail_urban rail rail_electric rail_fast ship" oneway="0"/>
    <type id="highway.track" priority="1" numLanes="1" speed="5.56" allow="pedestrian motorcycle moped bicycle" oneway="0"/>
    <type id="highway.trunk" priority="13" numLanes="2" speed="27.78" disallow="pedestrian bicycle tram rail_urban rail rail_electric rail_fast ship" oneway="0"/>
    <type id="highway.trunk_link" priority="8" numLanes="1" speed="22.22" disallow="pedestrian bicycle tram rail_urban rail rail_electric rail_fast ship" oneway="0"/>
    <type id="highway.unclassified" priority="4" numLanes="1" speed="13.89" disallow="tram rail_urban rail rail_electric rail_fast ship" oneway="0"/>
    <type id="highway.unsurfaced" priority="1" numLanes="1" speed="8.33" disallow="tram rail_urban rail rail_electric rail_fast ship" oneway="0"/>
    <type id="railway.highspeed" priority="21" numLanes="1" speed="69.44" allow="rail_fast" oneway="1"/>
    <type id="railway.light_rail" priority="19" numLanes="1" speed="27.78" allow="rail_urban" oneway="1"/>
    <type id="railway.preserved" priority="16" numLanes="1" speed="27.78" allow="rail" oneway="1"/>
    <type id="railway.rail" priority="20" numLanes="1" speed="44.44" allow="rail" oneway="1"/>
    <type id="railway.subway" priority="18" numLanes="1" speed="27.78" allow="rail_urban" oneway="1"/>
    <type id="railway.tram" priority="17" numLanes="1" speed="13.89" allow="tram" oneway="1"/>

    <edge id=":100993067_0" function="internal">
        <lane id=":100993067_0_0" index="0" disallow="tram rail_urban rail rail_electric rail_fast ship" speed="11.11" length="14.11" shape="2208.20,1203.18 2194.27,1200.88"/>
    </edge>
    <edge id=":100993067_1" function="internal">
        <lane id=":100993067_1_0" index="0" disallow="tram rail_urban rail rail_electric rail_fast ship" speed="8.21" length="14.14" shape="2208.20,1203.18 2204.63,1201.92 2202.24,1199.79 2201.00,1196.77 2200.94,1192.88"/>
    </edge>
    <edge id=":100993067_2" function="internal">
        <lane id=":100993067_2_0" index="0" disallow="tram rail_urban rail rail_electric rail_fast ship" speed="3.65" length="4.67" shape="2208.20,1203.18 2207.17,1202.16 2206.94,1201.30 2207.48,1200.59 2208.81,1200.04"/>
    </edge>
    <edge id=":100993067_3" function="internal">
        <lane id=":100993067_3_0" index="0" disallow="tram rail_urban rail rail_electric rail_fast ship" speed="6.76" length="9.26" shape="2204.11,1193.25 2204.15,1195.82 2204.95,1197.81 2206.50,1199.22 2208.81,1200.04"/>
    </edge>
    <edge id=":100993067_4" function="internal">
        <lane id=":100993067_4_0" index="0" disallow="tram rail_urban rail rail_electric rail_fast ship" speed="7.97" length="14.25" shape="2204.11,1193.25 2203.11,1197.04 2201.13,1199.57 2198.18,1200.85 2194.27,1200.88"/>
    </edge>
    <edge id=":100993067_5" function="internal">
        <lane id=":100993067_5_0" index="0" disallow="tram rail_urban rail rail_electric rail_fast ship" speed="3.65" length="4.67" shape="2204.11,1193.25 2203.18,1194.35 2202.34,1194.65 2201.59,1194.16 2200.94,1192.88"/>
    </edge>
    <edge id=":100993067_6" function="internal">
        <lane id=":100993067_6_0" index="0" disallow="tram rail_urban rail rail_electric rail_fast ship" speed="6.47" length="9.03" shape="2194.70,1197.71 2197.18,1197.69 2199.05,1196.88 2200.30,1195.27 2200.94,1192.88"/>
    </edge>
    <edge id=":100993067_7" function="internal">
        <lane id=":100993067_7_0" index="0" disallow="tram rail_urban rail rail_electric rail_fast ship" speed="13.89" length="14.31" shape="2194.70,1197.71 2208.81,1200.04"/>
    </edge>
    <edge id=":100993067_8" function="internal">
        <lane id=":100993067_8_0" index="0" disallow="tram rail_urban rail rail_electric rail_fast ship" speed="3.65" length="4.67" shape="2194.70,1197.71 2195.78,1198.66 2196.07,1199.51 2195.57,1200.25 2194.27,1200.88"/>
    </edge>
    <edge id=":100993951_0" function="internal">
        <lane id=":100993951_0_0" index="0" disallow="tram rail_urban rail rail_electric rail_fast ship" speed="3.65" length="4.67" shape="2299.82,1101.93 2300.93,1102.85 2301.24,1103.69 2300.75,1104.44 2299.47,1105.11"/>
    </edge>
    <edge id=":100993954_0" function="internal">
        <lane id=":100993954_0_0" index="0" disallow="tram rail_urban rail rail_electric rail_fast ship" speed="6.51" length="9.00" shape="2217.86,1124.88 2215.40,1124.95 2213.55,1125.79 2212.30,1127.40 2211.67,1129.79"/>
    </edge>
    <edge id=":100993954_1" function="internal">
        <lane id=":100993954_1_0" index="0" allow="pedestrian delivery bicycle" speed="9.72" length="11.90" shape="2217.86,1124.88 2206.04,1123.59"/>
    </edge>
    <edge id=":100993954_2" function="internal">
        <lane id=":100993954_2_0" index="0" disallow="tram rail_urban rail rail_electric rail_fast ship" speed="7.64" length="12.88" shape="2217.86,1124.88 2214.81,1123.98 2212.78,1122.09 2211.77,1119.21 2211.78,1115.34"/>
    </edge>
    <edge id=":100993954_3" function="internal">
        <lane id=":100993954_3_0" index="0" disallow="tram rail_urban rail rail_electric rail_fast ship" speed="3.65" length="4.67" shape="2217.86,1124.88 2216.76,1123.95 2216.46,1123.11 2216.94,1122.36 2218.23,1121.70"/>
    </edge>
    <edge id=":100993954_4" function="internal">
        <lane id=":100993954_4_0" index="0" allow="pedestrian delivery bicycle" speed="6.34" length="8.41" shape="2206.36,1120.41 2208.48,1120.27 2210.09,1119.38 2211.19,1117.74 2211.78,1115.34"/>
    </edge>
    <edge id=":100993954_5" function="internal">
        <lane id=":100993954_5_0" index="0" allow="pedestrian delivery bicycle" speed="9.72" length="11.94" shape="2206.36,1120.41 2218.23,1121.70"/>
    </edge>
    <edge id=":100993954_6" function="internal">
        <lane id=":100993954_6_0" index="0" allow="pedestrian delivery bicycle" speed="7.43" length="12.24" shape="2206.36,1120.41 2209.07,1121.24 2210.86,1123.08 2211.73,1125.93 2211.67,1129.79"/>
    </edge>
    <edge id=":100993954_7" function="internal">
        <lane id=":100993954_7_0" index="0" allow="pedestrian delivery bicycle" speed="3.65" length="4.67" shape="2206.36,1120.41 2207.47,1121.33 2207.79,1122.16 2207.31,1122.92 2206.04,1123.59"/>
    </edge>
    <edge id=":100993954_8" function="internal">
        <lane id=":100993954_8_0" index="0" allow="pedestrian delivery bicycle" speed="5.81" length="7.06" shape="2208.49,1129.41 2208.58,1126.98 2208.21,1125.20 2207.36,1124.07 2206.04,1123.59"/>
    </edge>
    <edge id=":100993954_9" function="internal">
        <lane id=":100993954_9_0" index="0" disallow="tram rail_urban rail rail_electric rail_fast ship" speed="13.89" length="14.46" shape="2208.49,1129.41 2209.17,1125.81 2210.14,1122.38 2211.10,1118.94 2211.78,1115.34"/>
    </edge>
    <edge id=":100993954_10" function="internal">
        <lane id=":100993954_10_0" index="0" disallow="tram rail_urban rail rail_electric rail_fast ship" speed="8.00" length="14.14" shape="2208.49,1129.41 2209.49,1125.66 2211.44,1123.13 2214.36,1121.81 2218.23,1121.70"/>
    </edge>
    <edge id=":100993954_11" function="internal">
        <lane id=":100993954_11_0" index="0" disallow="tram rail_urban rail rail_electric rail_fast ship" speed="3.65" length="4.67" shape="2208.49,1129.41 2209.43,1128.31 2210.27,1128.01 2211.02,1128.50 2211.67,1129.79"/>
    </edge>
    <edge id=":1339493426_0" function="internal">
        <lane id=":1339493426_0_0" index="0" allow="bicycle" speed="5.56" length="9.71" width="1.00" shape="1936.25,835.92 1935.14,845.56"/>
    </edge>
    <edge id=":1339493426_1" function="internal">
        <lane id=":1339493426_1_0" index="0" allow="bicycle" speed="2.04" length="0.73" width="1.00" shape="1936.25,835.92 1935.96,836.26 1935.70,836.35"/>
    </edge>
    <edge id=":1339493426_4" function="internal">
        <lane id=":1339493426_4_0" index="0" allow="bicycle" speed="2.04" length="0.73" width="1.00" shape="1935.70,836.35 1935.46,836.20 1935.26,835.79"/>
    </edge>
    <edge id=":1339493426_2" function="internal">
        <lane id=":1339493426_2_0" index="0" allow="bicycle" speed="5.56" length="9.73" width="1.00" shape="1934.14,845.46 1935.26,835.79"/>
    </edge>
    <edge id=":1339493426_3" function="internal">
        <lane id=":1339493426_3_0" index="0" allow="bicycle" speed="2.04" length="0.73" width="1.00" shape="1934.14,845.46 1934.43,845.11 1934.69,845.01"/>
    </edge>
    <edge id=":1339493426_5" function="internal">
        <lane id=":1339493426_5_0" index="0" allow="bicycle" speed="2.04" length="0.73" width="1.00" shape="1934.69,845.01 1934.93,845.16 1935.14,845.56"/>
    </edge>
    <edge id=":1339493433_0" function="internal">
        <lane id=":1339493433_0_0" index="0" allow="bicycle" speed="5.56" length="5.26" width="1.00" shape="1987.29,910.91 1982.08,910.20"/>
    </edge>
    <edge id=":1339493433_1" function="internal">
        <lane id=":1339493433_1_0" index="0" allow="bicycle" speed="5.56" length="5.30" width="1.00" shape="1987.29,910.91 1986.16,910.57 1985.20,909.86 1984.40,908.78 1983.75,907.34"/>
    </edge>
    <edge id=":1339493433_2" function="internal">
        <lane id=":1339493433_2_0" index="0" allow="bicycle" speed="2.04" length="1.46" width="1.00" shape="1987.29,910.91 1986.95,910.61 1986.86,910.35 1987.01,910.12 1987.42,909.92"/>
    </edge>
    <edge id=":1339493433_3" function="internal">
        <lane id=":1339493433_3_0" index="0" allow="bicycle" speed="5.37" length="4.19" width="1.00" shape="1984.69,907.01 1985.21,908.19 1985.84,909.07 1986.58,909.65 1987.42,909.92"/>
    </edge>
    <edge id=":1339493433_4" function="internal">
        <lane id=":1339493433_4_0" index="0" allow="bicycle" speed="4.28" length="5.50" width="1.00" shape="1984.69,907.01 1985.02,908.61 1984.69,909.67 1983.71,910.20 1982.08,910.20"/>
    </edge>
    <edge id=":1339493433_5" function="internal">
        <lane id=":1339493433_5_0" index="0" allow="bicycle" speed="2.04" length="1.46" width="1.00" shape="1984.69,907.01 1984.58,907.44 1984.39,907.64 1984.11,907.61 1983.75,907.34"/>
    </edge>
    <edge id=":1339493433_6" function="internal">
        <lane id=":1339493433_6_0" index="0" allow="bicycle" speed="3.36" length="3.22" width="1.00" shape="1982.22,909.20 1983.17,909.21 1983.75,908.90 1983.94,908.27 1983.75,907.34"/>
    </edge>
    <edge id=":1339493433_7" function="internal">
        <lane id=":1339493433_7_0" index="0" allow="bicycle" speed="5.56" length="5.25" width="1.00" shape="1982.22,909.20 1987.42,909.92"/>
    </edge>
    <edge id=":1339493433_8" function="internal">
        <lane id=":1339493433_8_0" index="0" allow="bicycle" speed="2.04" length="1.46" width="1.00" shape="1982.22,909.20 1982.55,909.50 1982.64,909.77 1982.48,910.00 1982.08,910.20"/>
    </edge>
    <edge id=":1339493457_0" function="internal">
        <lane id=":1339493457_0_0" index="0" disallow="tram rail_urban rail rail_electric rail_fast ship" speed="13.89" length="5.20" shape="1767.63,1312.21 1766.09,1312.06 1765.04,1311.99 1763.98,1311.98 1762.44,1312.02"/>
    </edge>
    <edge id=":1339493457_1" function="internal">
        <lane id=":1339493457_1_0" index="0" disallow="tram rail_urban rail rail_electric rail_fast ship" speed="13.89" length="5.60" shape="1762.36,1308.82 1764.02,1308.78 1765.16,1308.79 1766.29,1308.87 1767.95,1309.03"/>
    </edge>
    <edge id=":1339493461_0" function="internal">
        <lane id=":1339493461_0_0" index="0" disallow="tram rail_urban rail rail_electric rail_fast ship" speed="12.50" length="3.73" shape="1696.05,893.54 1693.42,890.90"/>
    </edge>
    <edge id=":1339493461_1" function="internal">
        <lane id=":1339493461_1_0" index="0" disallow="tram rail_urban rail rail_electric rail_fast ship" speed="11.11" length="9.78" shape="1696.05,893.54 1693.87,892.38 1693.19,890.24 1692.55,887.93 1690.49,886.24"/>
    </edge>
    <edge id=":1339493461_2" function="internal">
        <lane id=":1339493461_2_0" index="0" disallow="tram rail_urban rail rail_electric rail_fast ship" speed="3.65" length="4.67" shape="1696.43,890.36 1695.33,889.43 1695.03,888.59 1695.52,887.84 1696.81,887.19"/>
    </edge>
    <edge id=":1339493461_3" function="internal">
        <lane id=":1339493461_3_0" index="0" disallow="tram rail_urban rail rail_electric rail_fast ship" speed="11.11" length="6.61" shape="1691.49,879.82 1693.24,880.34 1694.47,880.56 1695.73,880.66 1697.56,880.83"/>
        <lane id=":1339493461_3_1" index="1" disallow="tram rail_urban rail rail_electric rail_fast ship" speed="11.11" length="6.61" shape="1690.99,883.03 1692.77,883.56 1694.03,883.76 1695.32,883.84 1697.18,884.01"/>
        <lane id=":1339493461_3_2" index="2" disallow="tram rail_urban rail rail_electric rail_fast ship" speed="11.11" length="6.61" shape="1690.99,883.03 1692.83,884.11 1693.84,885.38 1694.88,886.52 1696.81,887.19"/>
    </edge>
    <edge id=":1339493461_6" function="internal">
        <lane id=":1339493461_6_0" index="0" disallow="tram rail_urban rail rail_electric rail_fast ship" speed="3.67" length="4.75" shape="1690.99,883.03 1692.07,884.02 1692.35,884.88 1691.82,885.62 1690.49,886.24"/>
    </edge>
    <edge id=":1339493517_0" function="internal">
        <lane id=":1339493517_0_0" index="0" allow="bicycle" speed="5.56" length="5.01" width="1.00" shape="1933.42,1208.19 1932.78,1213.16"/>
    </edge>
    <edge id=":1339493517_1" function="internal">
        <lane id=":1339493517_1_0" index="0" allow="bicycle" speed="2.04" length="0.73" width="1.00" shape="1933.42,1208.19 1933.12,1208.53 1932.86,1208.62"/>
    </edge>
    <edge id=":1339493517_4" function="internal">
        <lane id=":1339493517_4_0" index="0" allow="bicycle" speed="2.04" length="0.73" width="1.00" shape="1932.86,1208.62 1932.63,1208.47 1932.43,1208.06"/>
    </edge>
    <edge id=":1339493517_2" function="internal">
        <lane id=":1339493517_2_0" index="0" allow="bicycle" speed="5.56" length="5.01" width="1.00" shape="1931.79,1213.03 1932.43,1208.06"/>
    </edge>
    <edge id=":1339493517_3" function="internal">
        <lane id=":1339493517_3_0" index="0" allow="bicycle" speed="2.04" length="0.73" width="1.00" shape="1931.79,1213.03 1932.08,1212.69 1932.35,1212.60"/>
    </edge>
    <edge id=":1339493517_5" function="internal">
        <lane id=":1339493517_5_0" index="0" allow="bicycle" speed="2.04" length="0.73" width="1.00" shape="1932.35,1212.60 1932.58,1212.76 1932.78,1213.16"/>
    </edge>
    <edge id=":1339493549_0" function="internal">
        <lane id=":1339493549_0_0" index="0" allow="bicycle" speed="5.56" length="5.04" width="1.00" shape="1958.92,1014.61 1958.30,1019.62"/>
    </edge>
    <edge id=":1339493549_1" function="internal">
        <lane id=":1339493549_1_0" index="0" allow="bicycle" speed="2.04" length="0.73" width="1.00" shape="1958.92,1014.61 1958.63,1014.96 1958.37,1015.06"/>
    </edge>
    <edge id=":1339493549_4" function="internal">
        <lane id=":1339493549_4_0" index="0" allow="bicycle" speed="2.04" length="0.73" width="1.00" shape="1958.37,1015.06 1958.14,1014.90 1957.93,1014.50"/>
    </edge>
    <edge id=":1339493549_2" function="internal">
        <lane id=":1339493549_2_0" index="0" allow="bicycle" speed="5.56" length="5.01" width="1.00" shape="1957.31,1019.48 1957.93,1014.50"/>
    </edge>
    <edge id=":1339493549_3" function="internal">
        <lane id=":1339493549_3_0" index="0" allow="bicycle" speed="2.04" length="0.73" width="1.00" shape="1957.31,1019.48 1957.61,1019.14 1957.87,1019.05"/>
    </edge>
    <edge id=":1339493549_5" function="internal">
        <lane id=":1339493549_5_0" index="0" allow="bicycle" speed="2.04" length="0.73" width="1.00" shape="1957.87,1019.05 1958.10,1019.21 1958.30,1019.62"/>
    </edge>
    <edge id=":1339493560_0" function="internal">
        <lane id=":1339493560_0_0" index="0" allow="bicycle" speed="5.56" length="5.24" width="1.00" shape="1937.50,896.09 1936.62,894.80 1936.05,893.90 1935.55,892.96 1934.87,891.56"/>
    </edge>
    <edge id=":1339493560_1" function="internal">
        <lane id=":1339493560_1_0" index="0" allow="bicycle" speed="2.04" length="0.73" width="1.00" shape="1937.50,896.09 1937.49,895.64 1937.62,895.39"/>
    </edge>
    <edge id=":1339493560_4" function="internal">
        <lane id=":1339493560_4_0" index="0" allow="bicycle" speed="2.04" length="0.73" width="1.00" shape="1937.62,895.39 1937.90,895.35 1938.32,895.52"/>
    </edge>
    <edge id=":1339493560_2" function="internal">
        <lane id=":1339493560_2_0" index="0" allow="bicycle" speed="5.56" length="5.08" width="1.00" shape="1935.78,891.13 1936.43,892.49 1936.92,893.40 1937.47,894.27 1938.32,895.52"/>
    </edge>
    <edge id=":1339493560_3" function="internal">
        <lane id=":1339493560_3_0" index="0" allow="bicycle" speed="2.04" length="0.73" width="1.00" shape="1935.78,891.13 1935.71,891.58 1935.54,891.80"/>
    </edge>
    <edge id=":1339493560_5" function="internal">
        <lane id=":1339493560_5_0" index="0" allow="bicycle" speed="2.04" length="0.73" width="1.00" shape="1935.54,891.80 1935.26,891.79 1934.87,891.56"/>
    </edge>
    <edge id=":1339493564_0" function="internal">
        <lane id=":1339493564_0_0" index="0" allow="bicycle" speed="5.56" length="5.00" width="1.00" shape="2170.33,863.89 2169.67,868.84"/>
    </edge>
    <edge id=":1339493564_1" function="internal">
        <lane id=":1339493564_1_0" index="0" allow="bicycle" speed="2.04" length="1.46" width="1.00" shape="2170.33,863.89 2170.03,864.23 2169.77,864.32 2169.54,864.17 2169.34,863.76"/>
    </edge>
    <edge id=":1339493564_2" function="internal">
        <lane id=":1339493564_2_0" index="0" allow="bicycle" speed="5.56" length="4.99" width="1.00" shape="2168.68,868.71 2169.34,863.76"/>
    </edge>
    <edge id=":1339493564_3" function="internal">
        <lane id=":1339493564_3_0" index="0" allow="bicycle" speed="2.04" length="1.46" width="1.00" shape="2168.68,868.71 2168.98,868.37 2169.24,868.28 2169.48,868.44 2169.67,868.84"/>
    </edge>
    <edge id=":1339493668_0" function="internal">
        <lane id=":1339493668_0_0" index="0" disallow="tram rail_urban rail rail_electric rail_fast ship" speed="13.89" length="5.13" shape="2175.74,869.75 2176.24,864.58"/>
        <lane id=":1339493668_0_1" index="1" disallow="tram rail_urban rail rail_electric rail_fast ship" speed="13.89" length="5.13" shape="2178.93,870.00 2179.42,864.95"/>
    </edge>
    <edge id=":1339493675_0" function="internal">
        <lane id=":1339493675_0_0" index="0" disallow="tram rail_urban rail rail_electric rail_fast ship" speed="13.89" length="10.47" shape="2149.61,947.40 2146.85,948.30 2144.72,948.03 2142.49,947.37 2139.41,947.07"/>
    </edge>
    <edge id=":1339493675_1" function="internal">
        <lane id=":1339493675_1_0" index="0" disallow="tram rail_urban rail rail_electric rail_fast ship" speed="13.89" length="9.04" shape="2138.71,943.90 2141.18,943.76 2142.86,943.47 2144.45,942.84 2146.65,941.72"/>
        <lane id=":1339493675_1_1" index="1" disallow="tram rail_urban rail rail_electric rail_fast ship" speed="13.89" length="9.04" shape="2138.71,943.90 2141.59,944.23 2143.62,944.98 2145.56,945.35 2148.13,944.56"/>
    </edge>
    <edge id=":1339493702_0" function="internal">
        <lane id=":1339493702_0_0" index="0" disallow="tram rail_urban rail rail_electric rail_fast ship" speed="13.89" length="5.06" shape="1791.70,1194.68 1792.40,1189.70"/>
        <lane id=":1339493702_0_1" index="1" disallow="tram rail_urban rail rail_electric rail_fast ship" speed="13.89" length="5.06" shape="1794.86,1195.16 1795.57,1190.12"/>
    </edge>
    <edge id=":1339493705_0" function="internal">
        <lane id=":1339493705_0_0" index="0" disallow="tram rail_urban rail rail_electric rail_fast ship" speed="13.89" length="5.05" shape="1943.81,1209.59 1943.16,1214.57"/>
        <lane id=":1339493705_0_1" index="1" disallow="tram rail_urban rail rail_electric rail_fast ship" speed="13.89" length="5.05" shape="1940.64,1209.14 1939.98,1214.17"/>
    </edge>
    <edge id=":1443235078_0" function="internal">
        <lane id=":1443235078_0_0" index="0" allow="pedestrian delivery bicycle" speed="5.56" length="5.00" shape="1733.45,1040.67 1738.41,1041.32"/>
    </edge>
    <edge id=":1443235094_0" function="internal">
        <lane id=":1443235094_0_0" index="0" allow="pedestrian delivery bicycle" speed="5.56" length="5.00" shape="1700.06,1070.81 1699.41,1075.77"/>
    </edge>
    <edge id=":1443235094_1" function="internal">
        <lane id=":1443235094_1_0" index="0" allow="pedestrian delivery bicycle" speed="3.65" length="1.44" shape="1700.06,1070.81 1699.11,1071.89"/>
    </edge>
    <edge id=":1443235094_4" function="internal">
        <lane id=":1443235094_4_0" index="0" allow="pedestrian delivery bicycle" speed="3.65" length="3.23" shape="1699.11,1071.89 1698.26,1072.19 1697.52,1071.69 1696.88,1070.39"/>
    </edge>
    <edge id=":1443235094_2" function="internal">
        <lane id=":1443235094_2_0" index="0" allow="pedestrian delivery bicycle" speed="5.56" length="5.00" shape="1696.23,1075.36 1696.88,1070.39"/>
    </edge>
    <edge id=":1443235094_3" function="internal">
        <lane id=":1443235094_3_0" index="0" allow="pedestrian delivery bicycle" speed="3.65" length="1.44" shape="1696.23,1075.36 1697.18,1074.27"/>
    </edge>
    <edge id=":1443235094_5" function="internal">
        <lane id=":1443235094_5_0" index="0" allow="pedestrian delivery bicycle" speed="3.65" length="3.23" shape="1697.18,1074.27 1698.03,1073.98 1698.77,1074.48 1699.41,1075.77"/>
    </edge>
    <edge id=":1443235105_0" function="internal">
        <lane id=":1443235105_0_0" index="0" allow="pedestrian delivery bicycle" speed="5.56" length="5.00" shape="1728.40,1113.70 1723.44,1113.06"/>
    </edge>
    <edge id=":1444295193_0" function="internal">
        <lane id=":1444295193_0_0" index="0" allow="pedestrian delivery bicycle" speed="5.56" length="8.71" shape="1561.43,942.66 1560.87,945.18 1560.56,946.92 1560.37,948.68 1560.18,951.26"/>
    </edge>
    <edge id=":1444295193_1" function="internal">
        <lane id=":1444295193_1_0" index="0" allow="pedestrian delivery bicycle" speed="5.56" length="9.83" shape="1561.43,942.66 1560.51,945.02 1558.98,946.64 1556.84,947.54 1554.10,947.72"/>
    </edge>
    <edge id=":1444295193_2" function="internal">
        <lane id=":1444295193_2_0" index="0" allow="pedestrian delivery bicycle" speed="3.65" length="4.67" shape="1561.43,942.66 1560.38,943.65 1559.52,943.86 1558.82,943.29 1558.31,941.95"/>
    </edge>
    <edge id=":1444295193_3" function="internal">
        <lane id=":1444295193_3_0" index="0" allow="pedestrian delivery bicycle" speed="5.44" length="5.25" shape="1554.30,944.52 1555.82,944.44 1556.99,943.99 1557.82,943.15 1558.31,941.95"/>
    </edge>
    <edge id=":1444295193_4" function="internal">
        <lane id=":1444295193_4_0" index="0" allow="pedestrian delivery bicycle" speed="5.56" length="10.22" shape="1554.30,944.52 1557.05,945.09 1558.94,946.41 1559.99,948.46 1560.18,951.26"/>
    </edge>
    <edge id=":1444295193_5" function="internal">
        <lane id=":1444295193_5_0" index="0" allow="pedestrian delivery bicycle" speed="3.65" length="4.67" shape="1554.30,944.52 1555.45,945.40 1555.80,946.22 1555.35,946.99 1554.10,947.72"/>
    </edge>
    <edge id=":1444295193_6" function="internal">
        <lane id=":1444295193_6_0" index="0" allow="pedestrian delivery bicycle" speed="5.03" length="5.01" shape="1556.99,951.02 1556.89,949.65 1556.38,948.64 1555.45,948.00 1554.10,947.72"/>
    </edge>
    <edge id=":1444295193_7" function="internal">
        <lane id=":1444295193_7_0" index="0" allow="pedestrian delivery bicycle" speed="5.56" length="9.19" shape="1556.99,951.02 1557.19,948.30 1557.39,946.45 1557.72,944.61 1558.31,941.95"/>
    </edge>
    <edge id=":1444295193_8" function="internal">
        <lane id=":1444295193_8_0" index="0" allow="pedestrian delivery bicycle" speed="3.65" length="4.67" shape="1556.99,951.02 1557.87,949.88 1558.70,949.54 1559.47,950.00 1560.18,951.26"/>
    </edge>
    <edge id=":1444295198_0" function="internal">
        <lane id=":1444295198_0_0" index="0" allow="pedestrian bicycle" speed="2.89" length="2.92" width="2.00" shape="1913.09,974.29 1913.98,974.15 1914.50,974.35 1914.65,974.89 1914.44,975.76"/>
    </edge>
    <edge id=":1444295218_0" function="internal">
        <lane id=":1444295218_0_0" index="0" allow="pedestrian bicycle" speed="2.89" length="2.92" width="2.00" shape="1860.55,1000.68 1859.65,1000.68 1859.16,1000.40 1859.09,999.84 1859.44,999.01"/>
    </edge>
    <edge id=":1444295230_0" function="internal">
        <lane id=":1444295230_0_0" index="0" allow="pedestrian delivery bicycle" speed="3.65" length="4.67" shape="1554.02,1004.42 1553.09,1005.52 1552.25,1005.82 1551.50,1005.33 1550.85,1004.04"/>
    </edge>
    <edge id=":1444295262_0" function="internal">
        <lane id=":1444295262_0_0" index="0" allow="pedestrian delivery bicycle" speed="5.56" length="6.20" shape="1614.11,1025.24 1620.26,1026.04"/>
    </edge>
    <edge id=":1444295262_1" function="internal">
        <lane id=":1444295262_1_0" index="0" allow="pedestrian delivery bicycle" speed="5.04" length="5.00" shape="1616.79,1028.71 1617.16,1027.39 1617.86,1026.51 1618.89,1026.05 1620.26,1026.04"/>
    </edge>
    <edge id=":1444295321_0" function="internal">
        <lane id=":1444295321_0_0" index="0" allow="pedestrian delivery bicycle" speed="5.56" length="6.20" shape="1615.61,1061.75 1609.46,1060.95"/>
    </edge>
    <edge id=":1444295321_1" function="internal">